fire.ops: written by SWAT+ editor v1.0.0 on 2018-11-29 16:24
name                   chg_cn2     frac_burn  description
grass                  8.00000       1.00000  
tree_intense           8.00000       0.90000  
tree_low               6.00000       0.70000
res_high               8.00000       1.00000
res_low                6.00000       0.80000
res_med                7.00000	     0.90000

