landuse.lum: written by SWAT+ editor v2.3.3 on 2023-10-25 08:58 for SWAT+ rev.60.5.7
name          cal_group          plnt_com             mgt               cn2         cons_prac        urban         urb_ro           ov_mann              tile               sep               vfs              grww               bmp  
this_lum           null         this_comm          mgt_01        rc_strow_g     up_down_slope          null          null    convtill_nores              null              null              null              null              null  

