aquifer.aqu: written by SWAT+ editor v2.2.0 on 2023-03-22 04:25 for SWAT+ rev.60.5.4
      id  name                          init        gw_flo       dep_bot        dep_wt         no3_n         sol_p        carbon      flo_dist        bf_max      alpha_bf         revap       rchg_dp      spec_yld       hl_no3n       flo_min     revap_min  
       1  aqu011                    initaqu1       0.05000      10.00000       6.00000       0.00000       0.00000       0.50000      50.00000       1.00000       0.95000       0.02000       0.01000       0.05000       0.00000       5.00000       5.00000  
       2  aqu012                    initaqu1       0.05000      10.00000       6.00000       0.00000       0.00000       0.50000      50.00000       1.00000       0.95000       0.02000       0.01000       0.05000       0.00000       5.00000       5.00000  
       3  aqu021                    initaqu1       0.05000      10.00000       6.00000       0.00000       0.00000       0.50000      50.00000       1.00000       0.95000       0.02000       0.01000       0.05000       0.00000       5.00000       5.00000  
       4  aqu022                    initaqu1       0.05000      10.00000       6.00000       0.00000       0.00000       0.50000      50.00000       1.00000       0.95000       0.02000       0.01000       0.05000       0.00000       5.00000       5.00000  
       5  aqu031                    initaqu1       0.05000      10.00000       6.00000       0.00000       0.00000       0.50000      50.00000       1.00000       0.95000       0.02000       0.01000       0.05000       0.00000       5.00000       5.00000  
       6  aqu032                    initaqu1       0.05000      10.00000       6.00000       0.00000       0.00000       0.50000      50.00000       1.00000       0.95000       0.02000       0.01000       0.05000       0.00000       5.00000       5.00000  
       7  aqu041                    initaqu1       0.05000      10.00000       6.00000       0.00000       0.00000       0.50000      50.00000       1.00000       0.95000       0.02000       0.01000       0.05000       0.00000       5.00000       5.00000  
       8  aqu042                    initaqu1       0.05000      10.00000       6.00000       0.00000       0.00000       0.50000      50.00000       1.00000       0.95000       0.02000       0.01000       0.05000       0.00000       5.00000       5.00000  
       9  aqu051                    initaqu1       0.05000      10.00000       6.00000       0.00000       0.00000       0.50000      50.00000       1.00000       0.95000       0.02000       0.01000       0.05000       0.00000       5.00000       5.00000  
      10  aqu052                    initaqu1       0.05000      10.00000       6.00000       0.00000       0.00000       0.50000      50.00000       1.00000       0.95000       0.02000       0.01000       0.05000       0.00000       5.00000       5.00000  
      11  aqu061                    initaqu1       0.05000      10.00000       6.00000       0.00000       0.00000       0.50000      50.00000       1.00000       0.95000       0.02000       0.01000       0.05000       0.00000       5.00000       5.00000  
      12  aqu062                    initaqu1       0.05000      10.00000       6.00000       0.00000       0.00000       0.50000      50.00000       1.00000       0.95000       0.02000       0.01000       0.05000       0.00000       5.00000       5.00000  
      13  aqu071                    initaqu1       0.05000      10.00000       6.00000       0.00000       0.00000       0.50000      50.00000       1.00000       0.95000       0.02000       0.01000       0.05000       0.00000       5.00000       5.00000  
      14  aqu072                    initaqu1       0.05000      10.00000       6.00000       0.00000       0.00000       0.50000      50.00000       1.00000       0.95000       0.02000       0.01000       0.05000       0.00000       5.00000       5.00000  
      15  aqu081                    initaqu1       0.05000      10.00000       6.00000       0.00000       0.00000       0.50000      50.00000       1.00000       0.95000       0.02000       0.01000       0.05000       0.00000       5.00000       5.00000  
      16  aqu082                    initaqu1       0.05000      10.00000       6.00000       0.00000       0.00000       0.50000      50.00000       1.00000       0.95000       0.02000       0.01000       0.05000       0.00000       5.00000       5.00000  
      17  aqu091                    initaqu1       0.05000      10.00000       6.00000       0.00000       0.00000       0.50000      50.00000       1.00000       0.95000       0.02000       0.01000       0.05000       0.00000       5.00000       5.00000  
      18  aqu092                    initaqu1       0.05000      10.00000       6.00000       0.00000       0.00000       0.50000      50.00000       1.00000       0.95000       0.02000       0.01000       0.05000       0.00000       5.00000       5.00000  
      19  aqu101                    initaqu1       0.05000      10.00000       6.00000       0.00000       0.00000       0.50000      50.00000       1.00000       0.95000       0.02000       0.01000       0.05000       0.00000       5.00000       5.00000  
      20  aqu102                    initaqu1       0.05000      10.00000       6.00000       0.00000       0.00000       0.50000      50.00000       1.00000       0.95000       0.02000       0.01000       0.05000       0.00000       5.00000       5.00000  
      21  aqu_deep010               initaqu1       0.00000      10.00000      20.00000       0.00000       0.00000       0.50000      50.00000       1.00000       0.91000       0.00000       0.00000       0.03000       0.00000       0.00000       0.00000  
