bmpuser.str: written by SWAT+ editor v2.2.0 on 2023-03-22 04:25 for SWAT+ rev.60.5.4
name                  flag       sed_eff      ptlp_eff      solp_eff      ptln_eff      soln_eff      bact_eff  description
bmpusr1                  1       0.20000       0.20000       0.20000       0.20000       0.20000       0.20000  
