channel-lte.cha: written by SWAT+ editor v2.2.0 on 2023-03-22 04:25 for SWAT+ rev.60.5.4
      id  name                       cha_ini           cha_hyd           cha_sed           cha_nut  
       1  cha01                     initcha1          hydcha01              null           nutcha1  
       2  cha03                     initcha1          hydcha03              null           nutcha1  
       3  cha04                     initcha1          hydcha04              null           nutcha1  
       4  cha05                     initcha1          hydcha05              null           nutcha1  
       5  cha06                     initcha1          hydcha06              null           nutcha1  
       6  cha08                     initcha1          hydcha08              null           nutcha1  
       7  cha09                     initcha1          hydcha09              null           nutcha1  
       8  cha12                     initcha1          hydcha12              null           nutcha1  
       9  cha13                     initcha1          hydcha13              null           nutcha1  
      10  cha15                     initcha1          hydcha15              null           nutcha1  
      11  cha16                     initcha1          hydcha16              null           nutcha1  
      12  cha19                     initcha1          hydcha19              null           nutcha1  
      13  cha20                     initcha1          hydcha20              null           nutcha1  
      14  cha23                     initcha1          hydcha23              null           nutcha1  
      15  cha24                     initcha1          hydcha24              null           nutcha1  
      16  cha25                     initcha1          hydcha25              null           nutcha1  
      17  cha26                     initcha1          hydcha26              null           nutcha1  
      18  cha27                     initcha1          hydcha27              null           nutcha1  
      19  cha29                     initcha1          hydcha29              null           nutcha1  
      20  cha30                     initcha1          hydcha30              null           nutcha1  
      21  cha31                     initcha1          hydcha31              null           nutcha1  
      22  cha32                     initcha1          hydcha32              null           nutcha1  
      23  cha33                     initcha1          hydcha33              null           nutcha1  
      24  cha35                     initcha1          hydcha35              null           nutcha1  
      25  cha36                     initcha1          hydcha36              null           nutcha1  
      26  cha37                     initcha1          hydcha37              null           nutcha1  
      27  cha38                     initcha1          hydcha38              null           nutcha1  
      28  cha40                     initcha1          hydcha40              null           nutcha1  
      29  cha41                     initcha1          hydcha41              null           nutcha1  
      30  cha42                     initcha1          hydcha42              null           nutcha1  
      31  cha43                     initcha1          hydcha43              null           nutcha1  
      32  cha44                     initcha1          hydcha44              null           nutcha1  
      33  cha45                     initcha1          hydcha45              null           nutcha1  
      34  cha46                     initcha1          hydcha46              null           nutcha1  
      35  cha47                     initcha1          hydcha47              null           nutcha1  
      36  cha48                     initcha1          hydcha48              null           nutcha1  
      37  cha51                     initcha1          hydcha51              null           nutcha1  
      38  cha52                     initcha1          hydcha52              null           nutcha1  
      39  cha55                     initcha1          hydcha55              null           nutcha1  
      40  cha57                     initcha1          hydcha57              null           nutcha1  
      41  cha60                     initcha1          hydcha60              null           nutcha1  
      42  cha61                     initcha1          hydcha61              null           nutcha1  
      43  cha63                     initcha1          hydcha63              null           nutcha1  
      44  cha64                     initcha1          hydcha64              null           nutcha1  
      45  cha65                     initcha1          hydcha65              null           nutcha1  
      46  cha68                     initcha1          hydcha68              null           nutcha1  
      47  cha71                     initcha1          hydcha71              null           nutcha1  
      48  cha72                     initcha1          hydcha72              null           nutcha1  
      49  cha73                     initcha1          hydcha73              null           nutcha1  
      50  cha76                     initcha1          hydcha76              null           nutcha1  
      51  cha80                     initcha1          hydcha80              null           nutcha1  
      52  cha82                     initcha1          hydcha82              null           nutcha1  
      53  cha83                     initcha1          hydcha83              null           nutcha1  
      54  cha86                     initcha1          hydcha86              null           nutcha1  
      55  cha87                     initcha1          hydcha87              null           nutcha1  
      56  cha88                     initcha1          hydcha88              null           nutcha1  
      57  cha90                     initcha1          hydcha90              null           nutcha1  
