hyd-sed-lte.cha: written by SWAT+ editor v2.2.0 on 2023-03-22 04:25 for SWAT+ rev.60.5.4
name                         order            wd            dp           slp           len          mann             k     erod_fact      cov_fact        wd_rto        eq_slp           d50          clay        carbon        dry_bd      side_slp      bed_load           fps           fpn        n_conc        p_conc         p_bio  description
hydcha01                         4      27.17726       0.99164       0.00146       3.42760       0.05000       5.00000       0.01000       0.00500      27.40638       0.00100      12.00000      50.00000       0.04000       1.00000       0.50000       0.50000       0.00001       0.10000       0.00000       0.00000       0.00000  
hydcha03                         3      17.16740       0.73005       0.00374       2.67250       0.05000       5.00000       0.01000       0.00500      23.51534       0.00100      12.00000      50.00000       0.04000       1.00000       0.50000       0.50000       0.00001       0.10000       0.00000       0.00000       0.00000  
hydcha04                         3      16.17542       0.70165       0.00558       2.41790       0.05000       5.00000       0.01000       0.00500      23.05340       0.00100      12.00000      50.00000       0.04000       1.00000       0.50000       0.50000       0.00001       0.10000       0.00000       0.00000       0.00000  
hydcha05                         3      15.60454       0.68504       0.01715       2.62070       0.05000       5.00000       0.01000       0.00500      22.77893       0.00100      12.00000      50.00000       0.04000       1.00000       0.50000       0.50000       0.00001       0.10000       0.00000       0.00000       0.00000  
hydcha06                         3      15.23343       0.67414       0.00529       4.72710       0.05000       5.00000       0.01000       0.00500      22.59691       0.00100      12.00000      50.00000       0.04000       1.00000       0.50000       0.50000       0.00001       0.10000       0.00000       0.00000       0.00000  
hydcha08                         3      13.68194       0.62755       0.01101       5.21780       0.05000       5.00000       0.01000       0.00500      21.80213       0.00100      12.00000      50.00000       0.04000       1.00000       0.50000       0.50000       0.00001       0.10000       0.00000       0.00000       0.00000  
hydcha09                         3      17.87554       0.74999       0.01034       5.32110       0.05000       5.00000       0.01000       0.00500      23.83433       0.00100      12.00000      50.00000       0.04000       1.00000       0.50000       0.50000       0.00001       0.10000       0.00000       0.00000       0.00000  
hydcha12                         3      12.32932       0.58548       0.01411       8.38140       0.05000       5.00000       0.01000       0.00500      21.05860       0.00100      12.00000      50.00000       0.04000       1.00000       0.50000       0.50000       0.00001       0.10000       0.00000       0.00000       0.00000  
hydcha13                         3      16.96366       0.72426       0.00456       0.92190       0.05000       5.00000       0.01000       0.00500      23.42194       0.00100      12.00000      50.00000       0.04000       1.00000       0.50000       0.50000       0.00001       0.10000       0.00000       0.00000       0.00000  
hydcha15                         3      16.73923       0.71786       0.00343       1.45880       0.05000       5.00000       0.01000       0.00500      23.31820       0.00100      12.00000      50.00000       0.04000       1.00000       0.50000       0.50000       0.00001       0.10000       0.00000       0.00000       0.00000  
hydcha16                         3      15.85110       0.69224       0.00482       2.03000       0.05000       5.00000       0.01000       0.00500      22.89828       0.00100      12.00000      50.00000       0.04000       1.00000       0.50000       0.50000       0.00001       0.10000       0.00000       0.00000       0.00000  
hydcha19                         3      13.62978       0.62595       0.00218       2.39740       0.05000       5.00000       0.01000       0.00500      21.77439       0.00100      12.00000      50.00000       0.04000       1.00000       0.50000       0.50000       0.00001       0.10000       0.00000       0.00000       0.00000  
hydcha20                         2       6.68060       0.38913       0.02482       1.63580       0.05000       5.00000       0.01000       0.00500      17.16808       0.00100      12.00000      50.00000       0.04000       1.00000       0.50000       0.50000       0.00001       0.10000       0.00000       0.00000       0.00000  
hydcha23                         2       5.56150       0.34436       0.00051       1.22400       0.05000       5.00000       0.01000       0.00500      16.15029       0.00100      12.00000      50.00000       0.04000       1.00000       0.50000       0.50000       0.00001       0.10000       0.00000       0.00000       0.00000  
hydcha24                         3      11.15790       0.54778       0.00457       1.09370       0.05000       5.00000       0.01000       0.00500      20.36936       0.00100      12.00000      50.00000       0.04000       1.00000       0.50000       0.50000       0.00001       0.10000       0.00000       0.00000       0.00000  
hydcha25                         3      10.63130       0.53041       0.03338       4.38890       0.05000       5.00000       0.01000       0.00500      20.04373       0.00100      12.00000      50.00000       0.04000       1.00000       0.50000       0.50000       0.00001       0.10000       0.00000       0.00000       0.00000  
hydcha26                         3       9.93510       0.50699       0.00553       0.88160       0.05000       5.00000       0.01000       0.00500      19.59629       0.00100      12.00000      50.00000       0.04000       1.00000       0.50000       0.50000       0.00001       0.10000       0.00000       0.00000       0.00000  
hydcha27                         2       7.11371       0.40577       0.01167       2.23280       0.05000       5.00000       0.01000       0.00500      17.53134       0.00100      12.00000      50.00000       0.04000       1.00000       0.50000       0.50000       0.00001       0.10000       0.00000       0.00000       0.00000  
hydcha29                         2       5.60425       0.34612       0.00358       2.59790       0.05000       5.00000       0.01000       0.00500      16.19157       0.00100      12.00000      50.00000       0.04000       1.00000       0.50000       0.50000       0.00001       0.10000       0.00000       0.00000       0.00000  
hydcha30                         2       6.90022       0.39761       0.01977       1.70820       0.05000       5.00000       0.01000       0.00500      17.35418       0.00100      12.00000      50.00000       0.04000       1.00000       0.50000       0.50000       0.00001       0.10000       0.00000       0.00000       0.00000  
hydcha31                         2       5.42949       0.33889       0.02020       1.74120       0.05000       5.00000       0.01000       0.00500      16.02148       0.00100      12.00000      50.00000       0.04000       1.00000       0.50000       0.50000       0.00001       0.10000       0.00000       0.00000       0.00000  
hydcha32                         2       5.84111       0.35581       0.00839       1.86120       0.05000       5.00000       0.01000       0.00500      16.41654       0.00100      12.00000      50.00000       0.04000       1.00000       0.50000       0.50000       0.00001       0.10000       0.00000       0.00000       0.00000  
hydcha33                         2       6.39492       0.37796       0.00739       0.67670       0.05000       5.00000       0.01000       0.00500      16.91978       0.00100      12.00000      50.00000       0.04000       1.00000       0.50000       0.50000       0.00001       0.10000       0.00000       0.00000       0.00000  
hydcha35                         2       5.80873       0.35449       0.02505       2.40040       0.05000       5.00000       0.01000       0.00500      16.38615       0.00100      12.00000      50.00000       0.04000       1.00000       0.50000       0.50000       0.00001       0.10000       0.00000       0.00000       0.00000  
hydcha36                         2       4.99618       0.32061       0.01613       3.72160       0.05000       5.00000       0.01000       0.00500      15.58341       0.00100      12.00000      50.00000       0.04000       1.00000       0.50000       0.50000       0.00001       0.10000       0.00000       0.00000       0.00000  
hydcha37                         2       4.94317       0.31834       0.00673       2.28340       0.05000       5.00000       0.01000       0.00500      15.52810       0.00100      12.00000      50.00000       0.04000       1.00000       0.50000       0.50000       0.00001       0.10000       0.00000       0.00000       0.00000  
hydcha38                         2       5.19632       0.32911       0.01705       1.07920       0.05000       5.00000       0.01000       0.00500      15.78878       0.00100      12.00000      50.00000       0.04000       1.00000       0.50000       0.50000       0.00001       0.10000       0.00000       0.00000       0.00000  
hydcha40                         2       5.27054       0.33224       0.01488       1.87790       0.05000       5.00000       0.01000       0.00500      15.86359       0.00100      12.00000      50.00000       0.04000       1.00000       0.50000       0.50000       0.00001       0.10000       0.00000       0.00000       0.00000  
hydcha41                         2       3.83553       0.26880       0.00687       1.30370       0.05000       5.00000       0.01000       0.00500      14.26894       0.00100      12.00000      50.00000       0.04000       1.00000       0.50000       0.50000       0.00001       0.10000       0.00000       0.00000       0.00000  
hydcha42                         2       3.04985       0.23071       0.01309       2.70030       0.05000       5.00000       0.01000       0.00500      13.21933       0.00100      12.00000      50.00000       0.04000       1.00000       0.50000       0.50000       0.00001       0.10000       0.00000       0.00000       0.00000  
hydcha43                         2       3.72738       0.26373       0.02455       1.38120       0.05000       5.00000       0.01000       0.00500      14.13354       0.00100      12.00000      50.00000       0.04000       1.00000       0.50000       0.50000       0.00001       0.10000       0.00000       0.00000       0.00000  
hydcha44                         2       2.60861       0.20789       0.01152       1.88820       0.05000       5.00000       0.01000       0.00500      12.54834       0.00100      12.00000      50.00000       0.04000       1.00000       0.50000       0.50000       0.00001       0.10000       0.00000       0.00000       0.00000  
hydcha45                         2       3.73733       0.26419       0.02361       1.73820       0.05000       5.00000       0.01000       0.00500      14.14611       0.00100      12.00000      50.00000       0.04000       1.00000       0.50000       0.50000       0.00001       0.10000       0.00000       0.00000       0.00000  
hydcha46                         1       1.41874       0.13851       0.01179       0.19240       0.05000       5.00000       0.01000       0.00500      10.24276       0.00100      12.00000      50.00000       0.04000       1.00000       0.50000       0.50000       0.00001       0.10000       0.00000       0.00000       0.00000  
hydcha47                         1       1.36778       0.13517       0.00109       0.33730       0.05000       5.00000       0.01000       0.00500      10.11864       0.00100      12.00000      50.00000       0.04000       1.00000       0.50000       0.50000       0.00001       0.10000       0.00000       0.00000       0.00000  
hydcha48                         1       3.01162       0.22878       0.00624       2.40760       0.05000       5.00000       0.01000       0.00500      13.16385       0.00100      12.00000      50.00000       0.04000       1.00000       0.50000       0.50000       0.00001       0.10000       0.00000       0.00000       0.00000  
hydcha51                         1       2.46617       0.20025       0.00550       0.88670       0.05000       5.00000       0.01000       0.00500      12.31566       0.00100      12.00000      50.00000       0.04000       1.00000       0.50000       0.50000       0.00001       0.10000       0.00000       0.00000       0.00000  
hydcha52                         1       2.42799       0.19817       0.00595       1.50850       0.05000       5.00000       0.01000       0.00500      12.25176       0.00100      12.00000      50.00000       0.04000       1.00000       0.50000       0.50000       0.00001       0.10000       0.00000       0.00000       0.00000  
hydcha55                         1       3.08037       0.23225       0.01650       3.72680       0.05000       5.00000       0.01000       0.00500      13.26327       0.00100      12.00000      50.00000       0.04000       1.00000       0.50000       0.50000       0.00001       0.10000       0.00000       0.00000       0.00000  
hydcha57                         1       2.32132       0.19233       0.05656       2.20790       0.05000       5.00000       0.01000       0.00500      12.06964       0.00100      12.00000      50.00000       0.04000       1.00000       0.50000       0.50000       0.00001       0.10000       0.00000       0.00000       0.00000  
hydcha60                         1       1.62587       0.15168       0.07725       0.94150       0.05000       5.00000       0.01000       0.00500      10.71878       0.00100      12.00000      50.00000       0.04000       1.00000       0.50000       0.50000       0.00001       0.10000       0.00000       0.00000       0.00000  
hydcha61                         1       1.41022       0.13796       0.01529       0.23490       0.05000       5.00000       0.01000       0.00500      10.22223       0.00100      12.00000      50.00000       0.04000       1.00000       0.50000       0.50000       0.00001       0.10000       0.00000       0.00000       0.00000  
hydcha63                         1       1.39441       0.13692       0.00001       0.24730       0.05000       5.00000       0.01000       0.00500      10.18387       0.00100      12.00000      50.00000       0.04000       1.00000       0.50000       0.50000       0.00001       0.10000       0.00000       0.00000       0.00000  
hydcha64                         1       1.69359       0.15587       0.08161       0.62700       0.05000       5.00000       0.01000       0.00500      10.86558       0.00100      12.00000      50.00000       0.04000       1.00000       0.50000       0.50000       0.00001       0.10000       0.00000       0.00000       0.00000  
hydcha65                         1       2.23598       0.18758       0.00529       1.35430       0.05000       5.00000       0.01000       0.00500      11.91990       0.00100      12.00000      50.00000       0.04000       1.00000       0.50000       0.50000       0.00001       0.10000       0.00000       0.00000       0.00000  
hydcha68                         1       2.08483       0.17903       0.04190       2.05280       0.05000       5.00000       0.01000       0.00500      11.64501       0.00100      12.00000      50.00000       0.04000       1.00000       0.50000       0.50000       0.00001       0.10000       0.00000       0.00000       0.00000  
hydcha71                         1       2.12952       0.18158       0.01455       0.85150       0.05000       5.00000       0.01000       0.00500      11.72764       0.00100      12.00000      50.00000       0.04000       1.00000       0.50000       0.50000       0.00001       0.10000       0.00000       0.00000       0.00000  
hydcha72                         1       2.49006       0.20154       0.02620       1.16910       0.05000       5.00000       0.01000       0.00500      12.35530       0.00100      12.00000      50.00000       0.04000       1.00000       0.50000       0.50000       0.00001       0.10000       0.00000       0.00000       0.00000  
hydcha73                         1       2.36855       0.19493       0.02140       2.08070       0.05000       5.00000       0.01000       0.00500      12.15096       0.00100      12.00000      50.00000       0.04000       1.00000       0.50000       0.50000       0.00001       0.10000       0.00000       0.00000       0.00000  
hydcha76                         1       1.83715       0.16456       0.05759       0.65700       0.05000       5.00000       0.01000       0.00500      11.16429       0.00100      12.00000      50.00000       0.04000       1.00000       0.50000       0.50000       0.00001       0.10000       0.00000       0.00000       0.00000  
hydcha80                         1       2.32884       0.19274       0.09239       1.43610       0.05000       5.00000       0.01000       0.00500      12.08267       0.00100      12.00000      50.00000       0.04000       1.00000       0.50000       0.50000       0.00001       0.10000       0.00000       0.00000       0.00000  
hydcha82                         1       2.03074       0.17592       0.00588       1.21880       0.05000       5.00000       0.01000       0.00500      11.54342       0.00100      12.00000      50.00000       0.04000       1.00000       0.50000       0.50000       0.00001       0.10000       0.00000       0.00000       0.00000  
hydcha83                         1       3.48804       0.25231       0.04343       3.45980       0.05000       5.00000       0.01000       0.00500      13.82431       0.00100      12.00000      50.00000       0.04000       1.00000       0.50000       0.50000       0.00001       0.10000       0.00000       0.00000       0.00000  
hydcha86                         1       1.34961       0.13397       0.06388       0.15730       0.05000       5.00000       0.01000       0.00500      10.07364       0.00100      12.00000      50.00000       0.04000       1.00000       0.50000       0.50000       0.00001       0.10000       0.00000       0.00000       0.00000  
hydcha87                         1       4.10936       0.28145       0.04307       4.32680       0.05000       5.00000       0.01000       0.00500      14.60073       0.00100      12.00000      50.00000       0.04000       1.00000       0.50000       0.50000       0.00001       0.10000       0.00000       0.00000       0.00000  
hydcha88                         1       2.18049       0.18447       0.02011       1.47340       0.05000       5.00000       0.01000       0.00500      11.82046       0.00100      12.00000      50.00000       0.04000       1.00000       0.50000       0.50000       0.00001       0.10000       0.00000       0.00000       0.00000  
hydcha90                         1       3.06004       0.23123       0.02700       2.02580       0.05000       5.00000       0.01000       0.00500      13.23404       0.00100      12.00000      50.00000       0.04000       1.00000       0.50000       0.50000       0.00001       0.10000       0.00000       0.00000       0.00000  
