hydrology.wet: written by SWAT+ editor v2.2.0 on 2023-03-22 04:25 for SWAT+ rev.60.5.4
name                    hru_ps         dp_ps        hru_es         dp_es             k          evap   vol_area_co      vol_dp_a      vol_dp_b      hru_frac  
paddy			          1.00        150.00         1.00        150.00           0.5           0.75          1.00         1.00         1.00          1.0  
