management.sch: written by SWAT+ editor v2.2.0 on 2023-03-22 04:25 for SWAT+ rev.60.5.4
name                       numb_ops  numb_auto            op_typ       mon       day        hu_sch          op_data1          op_data2      op_data3  
rice140_rot    					  0           7
	 plow
	 weir60r
	 weir0
	 pad_irr_r
	 puddle
	 pl_hv_rice 
	 fert_paddy
rice140_rye    					  0           8
	 plow
	 weir60rr
	 weir0
	 pad_irr_rr
	 puddle
	 pl_rice_ry
	 hv_rice_ry
	 fert_pad_r
agrl_rot                          0          2  
    pl_hv_agro      
	fert_stress    
	
