pcp.cli: Precipitation file names - file written by SWAT+ editor 2023-03-22 04:22:29.020522
filename
Imsilpcp.pcp
