slr.cli: Solar radiation file names - file written by SWAT+ editor 2023-03-22 04:22:29.078280
filename
Imsilsol.slr
