soils.sol: written by SWAT+ editor v2.2.0 on 2023-03-22 04:25 for SWAT+ rev.60.5.4
name                            nly           hyd_grp        dp_tot    anion_excl      perc_crk  texture                              dp            bd           awc        soil_k        carbon          clay          silt          sand          rock           alb        usle_k            ec         caco3            ph  
SONGSAN                           5                 A    1200.00000       0.50000       0.50000  LS                         
                                                                                                                               180.00000       1.39000       0.10871      16.10093       1.41760      17.30000      25.00000      57.70000       7.70000       0.20000       0.24977       0.01000       0.00000       0.00000  
                                                                                                                               250.00000       1.64000       0.09959      19.31345       0.58820      15.70000      25.10000      59.20000      25.40000       0.20000       0.25416       0.01000       0.00000       0.00000  
                                                                                                                               460.00000       1.48000       0.10069      18.05822       0.42350      16.10000      26.00000      57.90000       1.70000       0.20000       0.25832       0.01000       0.00000       0.00000  
                                                                                                                               820.00000       2.00000       0.07661      37.49110       0.20000      11.30000      18.60000      70.10000      25.00000       0.20000       0.22186       0.01000       0.00000       0.00000  
                                                                                                                              1200.00000       2.00000       0.06645      59.38071       0.26470       7.80000      15.80000      76.40000      29.00000       0.20000       0.19525       0.01000       0.00000       0.00000  
MAEGOG                            5                 B     800.00000       0.50000       0.50000  LS                         
                                                                                                                               120.00000       1.42000       0.09681      42.41581       1.48820       8.40000      25.20000      66.40000       0.00000       0.20000       0.24915       0.01000       0.00000       0.00000  
                                                                                                                               210.00000       1.48000       0.08980      36.52730       0.87060      10.40000      23.10000      66.50000       0.00000       0.20000       0.24347       0.01000       0.00000       0.00000  
                                                                                                                               300.00000       1.55000       0.08958      39.11813       0.47650       9.40000      25.20000      65.40000       0.00000       0.20000       0.25407       0.01000       0.00000       0.00000  
                                                                                                                               550.00000       1.00000       0.11191      13.43222       0.52940      17.80000      29.90000      52.30000       0.00000       0.20000       0.27505       0.01000       0.00000       0.00000  
                                                                                                                               800.00000       2.00000       0.07961      35.22072       0.50000      11.80000      18.60000      69.60000       0.00000       0.20000       0.22216       0.01000       0.00000       0.00000  
HOEGOG                            5                 C    1000.00000       0.50000       0.50000  LS                         
                                                                                                                               170.00000       1.29000       0.13518       4.74242       1.34120      26.20000      34.10000      39.70000       3.90000       0.20000       0.29314       0.01000       0.00000       0.00000  
                                                                                                                               300.00000       1.50000       0.13824      13.62299       0.68820      13.90000      43.90000      42.20000      11.00000       0.20000       0.33382       0.01000       0.00000       0.00000  
                                                                                                                               600.00000       1.60000       0.13145      18.30586       0.84120      12.00000      41.20000      46.80000      22.30000       0.20000       0.32083       0.01000       0.00000       0.00000  
                                                                                                                               750.00000       2.00000       0.11818      25.75288       0.64120      10.10000      37.20000      52.70000      34.00000       0.20000       0.30451       0.01000       0.00000       0.00000  
                                                                                                                              1000.00000       2.00000       0.12030      21.86917       0.43530      11.30000      38.30000      50.40000      41.00000       0.20000       0.30970       0.01000       0.00000       0.00000  
SAMGAG                            4                 A     650.00000       0.50000       0.50000  LS                         
                                                                                                                               120.00000       1.63000       0.09994      31.58343       0.35290      10.20000      30.00000      59.80000      11.40000       0.20000       0.27520       0.00000       0.00000       0.00000  
                                                                                                                               230.00000       1.71000       0.08931      45.36675       0.23530       7.80000      27.00000      65.20000      13.10000       0.20000       0.26205       0.00000       0.00000       0.00000  
                                                                                                                               320.00000       1.74000       0.08085      55.64787       0.17650       6.80000      23.80000      69.40000      12.50000       0.20000       0.24574       0.00000       0.00000       0.00000  
                                                                                                                               650.00000       2.00000       0.07849      51.94360       0.05880       7.70000      22.50000      69.80000      18.00000       0.20000       0.23970       0.00000       0.00000       0.00000  
OSAN                              5                 B    1500.00000       0.50000       0.50000  LS                         
                                                                                                                               120.00000       1.55000       0.10899      12.63874       1.15290      19.50000      24.70000      55.80000      27.20000       0.20000       0.25016       0.01000       0.00000       0.00000  
                                                                                                                               280.00000       1.50000       0.12201       6.11583       0.31760      24.40000      31.50000      44.10000      14.50000       0.20000       0.28472       0.01000       0.00000       0.00000  
                                                                                                                               500.00000       1.55000       0.11256      17.41319       0.21760      14.60000      33.60000      51.80000       7.50000       0.20000       0.29063       0.01000       0.00000       0.00000  
                                                                                                                              1000.00000       2.00000       0.10207      26.66278       0.13530      11.50000      31.00000      57.50000       8.00000       0.20000       0.27952       0.01000       0.00000       0.00000  
                                                                                                                              1500.00000       2.00000       0.10409      23.33946       0.11760      12.60000      31.30000      56.10000       4.00000       0.20000       0.28081       0.01000       0.00000       0.00000  
JIGOG                             5                 B    1000.00000       0.50000       0.50000  LS                         
                                                                                                                               110.00000       1.27000       0.13844      12.96055       3.82350      18.60000      27.80000      53.60000      14.90000       0.20000       0.25969       0.01000       0.00000       0.00000  
                                                                                                                               260.00000       1.31000       0.13016      10.70206       2.47060      19.90000      29.50000      50.60000      15.20000       0.20000       0.26723       0.01000       0.00000       0.00000  
                                                                                                                               450.00000       1.49000       0.10901      16.19422       1.05880      16.80000      27.00000      56.20000      16.40000       0.20000       0.26040       0.01000       0.00000       0.00000  
                                                                                                                               750.00000       2.00000       0.08485      32.39344       0.58820      12.10000      20.60000      67.30000      19.00000       0.20000       0.23288       0.01000       0.00000       0.00000  
                                                                                                                              1000.00000       2.00000       0.07602      52.01101       0.17650       8.00000      20.70000      71.30000      16.00000       0.20000       0.22975       0.01000       0.00000       0.00000  
DAEGU                             3                 A     250.00000       0.50000       0.50000  LS                         
                                                                                                                                70.00000       1.21000       0.14663       5.34249       2.98240      25.10000      34.40000      40.50000      12.50000       0.20000       0.29095       0.01000       0.00000       0.00000  
                                                                                                                               200.00000       1.86000       0.10530      10.36710       0.65290      21.50000      23.30000      55.20000      52.90000       0.20000       0.24650       0.01000       0.00000       0.00000  
                                                                                                                               250.00000       1.93000       0.13394       2.52118       0.00000      32.10000      35.10000      32.80000      60.00000       0.20000       0.30775       0.01000       0.00000       0.00000  
ODAE                              3                 A     450.00000       0.50000       0.50000  LS                         
                                                                                                                               120.00000       1.19000       0.17345       7.86178       4.47060      19.70000      41.60000      38.70000       6.90000       0.20000       0.31936       0.01000       0.00000       0.00000  
                                                                                                                               380.00000       1.40000       0.13773      12.32692       1.47060      16.10000      39.30000      44.60000      11.80000       0.20000       0.30975       0.01000       0.00000       0.00000  
                                                                                                                               450.00000       1.79000       0.10904      24.99300       0.34120      11.40000      33.50000      55.10000      34.60000       0.20000       0.28979       0.01000       0.00000       0.00000  
PadHOEGOG                         5                 C    1000.00000       0.50000       0.50000  LS                         
                                                                                                                               170.00000       1.29000       0.13518       4.74242       1.34120      26.20000      34.10000      39.70000       3.90000       0.20000       0.29314       0.01000       0.00000       0.00000  
                                                                                                                               300.00000       1.50000       0.13824      13.62299       0.68820      13.90000      43.90000      42.20000      11.00000       0.20000       0.33382       0.01000       0.00000       0.00000  
                                                                                                                               450.00000       1.60000       0.13145       0.02000       0.84120      12.00000      41.20000      46.80000      22.30000       0.20000       0.32083       0.01000       0.00000       0.00000  
                                                                                                                               600.00000       1.60000       0.13145      18.30586       0.84120      12.00000      41.20000      46.80000      22.30000       0.20000       0.32083       0.01000       0.00000       0.00000  
                                                                                                                               750.00000       2.00000       0.11818      25.75288       0.64120      10.10000      37.20000      52.70000      34.00000       0.20000       0.30451       0.01000       0.00000       0.00000  
PadOSAN                           5                 B    1500.00000       0.50000       0.50000  LS                         
                                                                                                                               120.00000       1.55000       0.10899      12.63874       1.15290      19.50000      24.70000      55.80000      27.20000       0.20000       0.25016       0.01000       0.00000       0.00000  
                                                                                                                               280.00000       1.50000       0.12201       6.11583       0.31760      24.40000      31.50000      44.10000      14.50000       0.20000       0.28472       0.01000       0.00000       0.00000  
                                                                                                                               300.00000       1.55000       0.11256      17.41319       0.21760      14.60000      33.60000      51.80000       7.50000       0.20000       0.29063       0.01000       0.00000       0.00000  
                                                                                                                               450.00000       1.55000       0.11256       0.02000       0.21760      14.60000      33.60000      51.80000       7.50000       0.20000       0.29063       0.01000       0.00000       0.00000  
                                                                                                                               500.00000       1.55000       0.11256      17.41319       0.21760      14.60000      33.60000      51.80000       7.50000       0.20000       0.29063       0.01000       0.00000       0.00000  
PadJIGOG                          5                 B    1000.00000       0.50000       0.50000  LS                         
                                                                                                                               110.00000       1.27000       0.13844      12.96055       3.82350      18.60000      27.80000      53.60000      14.90000       0.20000       0.25969       0.01000       0.00000       0.00000  
                                                                                                                               260.00000       1.31000       0.13016      10.70206       2.47060      19.90000      29.50000      50.60000      15.20000       0.20000       0.26723       0.01000       0.00000       0.00000  
                                                                                                                               300.00000       1.49000       0.10901      16.19422       1.05880      16.80000      27.00000      56.20000      16.40000       0.20000       0.26040       0.01000       0.00000       0.00000  
                                                                                                                               450.00000       1.49000       0.10901       0.02000       1.05880      16.80000      27.00000      56.20000      16.40000       0.20000       0.26040       0.01000       0.00000       0.00000  
                                                                                                                               750.00000       2.00000       0.08485      32.39344       0.58820      12.10000      20.60000      67.30000      19.00000       0.20000       0.23288       0.01000       0.00000       0.00000  
PadSAMGAG                         4                 A     650.00000       0.50000       0.50000  LS                         
                                                                                                                               120.00000       1.63000       0.09994      31.58343       0.35290      10.20000      30.00000      59.80000      11.40000       0.20000       0.27520       0.00000       0.00000       0.00000  
                                                                                                                               230.00000       1.71000       0.08931      45.36675       0.23530       7.80000      27.00000      65.20000      13.10000       0.20000       0.26205       0.00000       0.00000       0.00000  
                                                                                                                               300.00000       1.74000       0.08085      55.64787       0.17650       6.80000      23.80000      69.40000      12.50000       0.20000       0.24574       0.00000       0.00000       0.00000  
                                                                                                                               320.00000       1.74000       0.08085       0.02000       0.17650       6.80000      23.80000      69.40000      12.50000       0.20000       0.24574       0.00000       0.00000       0.00000  
PadSONGSAN                        5                 A    1200.00000       0.50000       0.50000  LS                         
                                                                                                                               180.00000       1.39000       0.10871      16.10093       1.41760      17.30000      25.00000      57.70000       7.70000       0.20000       0.24977       0.01000       0.00000       0.00000  
                                                                                                                               250.00000       1.64000       0.09959      19.31345       0.58820      15.70000      25.10000      59.20000      25.40000       0.20000       0.25416       0.01000       0.00000       0.00000  
                                                                                                                               300.00000       1.48000       0.10069      18.05822       0.42350      16.10000      26.00000      57.90000       1.70000       0.20000       0.25832       0.01000       0.00000       0.00000  
                                                                                                                               450.00000       1.48000       0.10069       0.02000       0.42350      16.10000      26.00000      57.90000       1.70000       0.20000       0.25832       0.01000       0.00000       0.00000  
                                                                                                                               460.00000       1.48000       0.10069      18.05822       0.42350      16.10000      26.00000      57.90000       1.70000       0.20000       0.25832       0.01000       0.00000       0.00000  
SUAM                              3                 B    1200.00000       0.50000       0.50000  LS                         
                                                                                                                               150.00000       1.64000       0.07630      67.96050       0.96470       5.50000      19.70000      74.80000      11.30000       0.20000       0.21608       0.01000       0.00000       0.00000  
                                                                                                                               400.00000       1.64000       0.08102      50.22729       0.74120       8.00000      21.10000      70.90000      14.20000       0.20000       0.23134       0.01000       0.00000       0.00000  
                                                                                                                              1200.00000       1.71000       0.07720      56.02773       0.43530       7.20000      20.90000      71.90000      14.30000       0.20000       0.22946       0.01000       0.00000       0.00000  
PadYECHEON                        3                 D    1100.00000       0.50000       0.50000  LS                         
                                                                                                                               130.00000       1.45000       0.11677      21.19598       0.85880      12.60000      34.20000      53.20000       2.70000       0.20000       0.29140       0.01000       0.00000       0.00000  
                                                                                                                               300.00000       1.54000       0.09786      36.35555       0.74120       9.30000      28.10000      62.60000       5.20000       0.20000       0.26632       0.01000       0.00000       0.00000  
                                                                                                                               450.00000       1.54000       0.09786       0.02000       0.74120       9.30000      28.10000      62.60000       5.20000       0.20000       0.26632       0.01000       0.00000       0.00000  
Etc                               3                 D    1000.00000       0.50000       0.50000  LS                         
                                                                                                                               180.00000       1.03000       0.13350       1.52634       6.41180      44.00000      48.20000       7.80000       0.40000       0.20000       0.37741       0.01000       0.00000       0.00000  
                                                                                                                               420.00000       1.03000       0.12324       1.56171      10.11180      44.20000      48.60000       7.20000       0.00000       0.20000       0.37950       0.01000       0.00000       0.00000  
                                                                                                                              1000.00000       1.07000       0.24980       2.30358      17.35880      30.70000      60.00000       9.30000       0.00000       0.20000       0.40694       0.01000       0.00000       0.00000  
YECHEON                           3                 D    1100.00000       0.50000       0.50000  LS                         
                                                                                                                               130.00000       1.45000       0.11677      21.19598       0.85880      12.60000      34.20000      53.20000       2.70000       0.20000       0.29140       0.01000       0.00000       0.00000  
                                                                                                                               450.00000       1.54000       0.09786      36.35555       0.74120       9.30000      28.10000      62.60000       5.20000       0.20000       0.26632       0.01000       0.00000       0.00000  
                                                                                                                              1100.00000       1.51000       0.10674      27.06415       0.68240      11.20000      31.20000      57.60000       3.80000       0.20000       0.27959       0.01000       0.00000       0.00000  
ANRYONG                           4                 B     900.00000       0.50000       0.50000  LS                         
                                                                                                                               100.00000       1.25000       0.08617      60.76549       0.90590       5.50000      24.50000      70.00000      11.74000       0.20000       0.24658       0.01000       0.00000       0.00000  
                                                                                                                               250.00000       1.35000       0.11351      24.60266       0.60590      11.20000      34.60000      54.20000      23.46000       0.20000       0.29390       0.01000       0.00000       0.00000  
                                                                                                                               500.00000       1.85000       0.14485       7.74673       0.54710      18.70000      45.30000      36.00000      41.60000       0.20000       0.34310       0.01000       0.00000       0.00000  
                                                                                                                               900.00000       1.80000       0.11877       8.50317       0.39410      21.50000      31.40000      47.10000      40.93000       0.20000       0.28286       0.01000       0.00000       0.00000  
CHILGOG                           5                 B     630.00000       0.50000       0.50000  LS                         
                                                                                                                               100.00000       1.44000       0.10618      25.19953       0.93530      12.30000      29.20000      58.50000       0.00000       0.20000       0.27020       0.01000       0.00000       0.00000  
                                                                                                                               170.00000       1.41000       0.10968      19.52929       0.96470      14.60000      29.20000      56.20000       0.00000       0.20000       0.27011       0.01000       0.00000       0.00000  
                                                                                                                               280.00000       1.43000       0.11923      14.65510       0.60000      15.90000      34.40000      49.70000       0.00000       0.20000       0.29379       0.01000       0.00000       0.00000  
                                                                                                                               500.00000       1.00000       0.13876       7.55516       0.50000      19.90000      42.00000      38.10000       0.00000       0.20000       0.32925       0.01000       0.00000       0.00000  
                                                                                                                               630.00000       1.00000       0.14343       3.29082       0.47650      28.30000      41.10000      30.60000       0.00000       0.20000       0.33214       0.01000       0.00000       0.00000  
PadCHILGOG                        5                 B     630.00000       0.50000       0.50000  LS                         
                                                                                                                               100.00000       1.44000       0.10618      25.19953       0.93530      12.30000      29.20000      58.50000       0.00000       0.20000       0.27020       0.01000       0.00000       0.00000  
                                                                                                                               170.00000       1.41000       0.10968      19.52929       0.96470      14.60000      29.20000      56.20000       0.00000       0.20000       0.27011       0.01000       0.00000       0.00000  
                                                                                                                               280.00000       1.43000       0.11923      14.65510       0.60000      15.90000      34.40000      49.70000       0.00000       0.20000       0.29379       0.01000       0.00000       0.00000  
                                                                                                                               300.00000       1.00000       0.13876       7.55516       0.50000      19.90000      42.00000      38.10000       0.00000       0.20000       0.32925       0.01000       0.00000       0.00000  