time.sim: written by SWAT+ editor v2.2.0 on 2023-03-22 04:25 for SWAT+ rev.60.5.4
day_start  yrc_start   day_end   yrc_end      step  
       1      2010      365       2023         0  
