topography.hyd: written by SWAT+ editor v2.2.0 on 2023-03-22 04:25 for SWAT+ rev.60.5.4
name                       slp       slp_len       lat_len      dist_cha         depos  
topohru0001            0.01078      10.00000      10.00000     121.00000       0.00000  
