wnd.cli: Wind speed file names - file written by SWAT+ editor 2023-03-22 04:22:29.234736
filename
Imsilwind.wnd
