bmpuser.str: written by SWAT+ editor v2.3.3 on 2025-03-25 10:57 for SWAT+ rev.60.5.7
name                  flag       sed_eff      ptlp_eff      solp_eff      ptln_eff      soln_eff      bact_eff  description
bmpusr1                  1       0.20000       0.20000       0.20000       0.20000       0.20000       0.20000  
