codes.bsn: written by SWAT+ editor v2.3.3 on 2025-03-25 10:57 for SWAT+ rev.60.5.7
        pet_file           wq_file       pet     event     crack  swift_out   sed_det   rte_cha   deg_cha    wq_cha  nostress        cn    c_fact    carbon     lapse      uhyd   sed_cha  tiledrain    wtable    soil_p     gampt          atmo_dep  stor_max   i_fpwet  
            null              null         1         0         0         1         0         0         0         1         0         0         0         0         0         1         0         0         0         0         0                 a         0         0  
