field.fld: written by SWAT+ editor v2.3.3 on 2025-03-25 10:57 for SWAT+ rev.60.5.7
name                       len            wd           ang  
fld10                500.00000     100.00000      30.00000  
