hydrology.hyd: written by SWAT+ editor v2.3.3 on 2025-03-25 10:57 for SWAT+ rev.60.5.7
name                 lat_ttime       lat_sed       can_max          esco          epco   orgn_enrich   orgp_enrich       cn3_swf       bio_mix         perco      lat_orgn      lat_orgp        pet_co       latq_co  
hyd01                  0.00000       0.00000       1.00000       0.95000       0.50000       0.00000       0.00000       0.95000       0.20000       0.90000       0.00000       0.00000       1.00000       0.01000  
hyd02                  0.00000       0.00000       1.00000       0.95000       0.50000       0.00000       0.00000       0.95000       0.20000       0.90000       0.00000       0.00000       1.00000       0.01000  
hyd03                  0.00000       0.00000       1.00000       0.95000       0.50000       0.00000       0.00000       0.95000       0.20000       0.90000       0.00000       0.00000       1.00000       0.01000  
hyd04                  0.00000       0.00000       1.00000       0.95000       0.50000       0.00000       0.00000       0.95000       0.20000       0.90000       0.00000       0.00000       1.00000       0.01000  
hyd05                  0.00000       0.00000       1.00000       0.95000       0.50000       0.00000       0.00000       0.95000       0.20000       0.90000       0.00000       0.00000       1.00000       0.01000  
hyd06                  0.00000       0.00000       1.00000       0.95000       0.50000       0.00000       0.00000       0.95000       0.20000       0.90000       0.00000       0.00000       1.00000       0.01000  
hyd07                  0.00000       0.00000       1.00000       0.95000       0.50000       0.00000       0.00000       0.95000       0.20000       0.90000       0.00000       0.00000       1.00000       0.01000  
hyd08                  0.00000       0.00000       1.00000       0.95000       0.50000       0.00000       0.00000       0.95000       0.20000       0.90000       0.00000       0.00000       1.00000       0.01000  
hyd09                  0.00000       0.00000       1.00000       0.95000       0.50000       0.00000       0.00000       0.95000       0.20000       0.90000       0.00000       0.00000       1.00000       0.01000  
hyd10                  0.00000       0.00000       1.00000       0.95000       0.50000       0.00000       0.00000       0.95000       0.20000       0.90000       0.00000       0.00000       1.00000       0.01000  
