initial.cha: written by SWAT+ editor v2.3.3 on 2025-03-25 10:57 for SWAT+ rev.60.5.7
name                       org_min              pest              path              hmet              salt  description       
initcha1                   no_init              null              null              null              null  null              
