landuse.lum: written by SWAT+ editor v2.3.3 on 2025-03-25 10:57 for SWAT+ rev.60.5.7
name                         cal_group          plnt_com                                        mgt               cn2         cons_prac             urban            urb_ro           ov_mann              tile               sep               vfs              grww               bmp  
frsd_new_lum                      null     frsd_new_comm                                       null            wood_f     up_down_slope              null              null        forest_med              null              null              null              null              null  
barn_lum                          null         barn_comm                                       null        rc_strow_g     up_down_slope              null              null    convtill_nores              null              null              null              null              null  
frsd_mat_lum                      null     frsd_mat_comm                                       null            wood_f     up_down_slope              null              null        forest_med              null              null              null              null              null  
