rout_unit.rtu: written by SWAT+ editor v2.3.3 on 2025-03-25 10:57 for SWAT+ rev.60.5.7
      id              name            define               dlr              topo             field  
       1             rtu10             rtu10              null         toportu10             fld10  
