soils.sol: written by SWAT+ editor v2.3.3 on 2025-03-25 10:57 for SWAT+ rev.60.5.7
name                            nly           hyd_grp        dp_tot    anion_excl      perc_crk  texture                              dp            bd           awc        soil_k        carbon          clay          silt          sand          rock           alb        usle_k            ec         caco3            ph  
665220                            5                 B     130.00000       0.50000       0.50000  FSL                        
                                                                                                                                 5.00000       1.00000       0.15000      33.02748       0.00000       4.50000      30.90000      64.60000      20.00000       0.00000       0.28000       0.00000       0.00000       4.80000  
                                                                                                                                15.00000       1.00000       0.15000      33.02748       0.00000       4.50000      30.90000      64.60000      20.00000       0.00000       0.28000       0.00000       0.00000       4.80000  
                                                                                                                                30.00000       1.00000       0.15000      33.02748       0.00000       4.50000      30.90000      64.60000      20.00000       0.00000       0.28000       0.00000       0.00000       4.80000  
                                                                                                                                60.00000       1.00000       0.15000      33.02748       0.00000       4.50000      30.90000      64.60000      20.00000       0.00000       0.28000       0.00000       0.00000       4.80000  
                                                                                                                               130.00000       1.00000       0.15000      33.02748       0.00000       4.50000      30.90000      64.60000      20.00000       0.00000       0.28000       0.00000       0.00000       4.80000  
