tiledrain.str: written by SWAT+ editor v2.3.3 on 2025-03-25 10:57 for SWAT+ rev.60.5.7
name                        dp          t_fc           lag           rad          dist         drain          pump      lat_ksat  
mw24_1000           1000.00000      24.00000      96.00000     100.00000      30.00000      10.00000       1.00000       2.00000  
