time.sim: written by SWAT+ editor v2.3.3 on 2025-02-04 16:09 for SWAT+ rev.60.5.7
day_start  yrc_start   day_end   yrc_end      step  
       0      1980         0      1989         0  
