topography.hyd: written by SWAT+ editor v2.3.3 on 2025-03-25 10:57 for SWAT+ rev.60.5.7
name                       slp       slp_len       lat_len      dist_cha         depos  
topohru01              0.05371      30.00000      30.00000     121.00000       0.00000  
topohru02              0.14971      10.00000      10.00000     121.00000       0.00000  
topohru03              0.24897      10.00000      10.00000     121.00000       0.00000  
topohru04              0.44385      10.00000      10.00000     121.00000       0.00000  
topohru05              0.04057      60.00000      60.00000     121.00000       0.00000  
topohru06              0.13639      10.00000      10.00000     121.00000       0.00000  
topohru07              0.06808      30.00000      30.00000     121.00000       0.00000  
topohru08              0.16072      10.00000      10.00000     121.00000       0.00000  
topohru09              0.28320      10.00000      10.00000     121.00000       0.00000  
topohru10              0.46901      10.00000      10.00000     121.00000       0.00000  
toportu10              0.35501     121.00000     121.00000     121.00000       0.00000  
