weather-wgn.cli: written by SWAT+ editor v2.3.3 on 2025-03-25 10:57 for SWAT+ rev.60.5.7
436n712w                       43.55590     -71.25000     154.00000        32  
 tmp_max_ave   tmp_min_ave    tmp_max_sd    tmp_min_sd       pcp_ave        pcp_sd      pcp_skew       wet_dry       wet_wet      pcp_days       pcp_hhr       slr_ave       dew_ave       wnd_ave  
    -3.52073     -10.88590       5.91599       6.77469      92.45090       6.57169       3.22289       0.34010       0.36160      12.53120      16.08320       6.74790       0.82020       4.51660  
    -2.23747     -10.14260       5.32491       6.51691      84.02660       6.96540       4.04579       0.31450       0.38874      11.65620      22.56600      10.50950       0.84322       4.48426  
     3.21322      -5.22325       5.56035       5.87093     115.29900       7.45883       3.17853       0.41856       0.39250      15.84380      19.31980      13.83230       0.82202       4.19074  
    10.86590       0.81767       5.71433       3.74788     114.85300       7.79552       3.73641       0.38298       0.39796      15.31250      28.31970      17.04630       0.76785       3.77034  
    17.59630       6.16294       5.49812       3.77479     106.90700       7.21797       4.32327       0.38776       0.40120      15.65620      31.07000      19.64560       0.74624       3.24306  
    23.04070      11.15590       5.02059       3.68405     105.47600       6.58141       2.91279       0.37214       0.39040      14.96880      16.23460      21.44580       0.75073       2.94193  
    26.28190      14.21370       4.00399       3.00845      95.37000       6.54357       4.58344       0.35962       0.37924      14.75000      28.81270      22.13220       0.73779       2.72862  
    25.64370      13.54210       4.14911       3.38846      98.15420       7.15363       4.73591       0.31514       0.39151      13.25000      29.42190      19.96760       0.73544       2.61579  
    20.89610       9.44291       4.73136       4.13563      90.63540       7.63466       4.46422       0.29322       0.36757      11.56250      25.12550      15.74450       0.74074       2.94012  
    13.42810       3.92647       4.73881       4.23579     108.17800       9.36680       4.96847       0.29276       0.35938      12.00000      38.57830      10.53710       0.76098       3.52603  
     6.75456      -0.50440       4.78298       4.25534     115.11700       8.00901       3.24152       0.36873       0.38009      13.81250      22.87600       6.32931       0.78528       4.01752  
    -0.13878      -6.55611       5.26844       5.72109      98.63800       7.07087       3.67653       0.37569       0.37330      13.81250      22.99440       5.34192       0.79338       4.57168  
436n716w                       43.55590     -71.56250     304.00000        32  
 tmp_max_ave   tmp_min_ave    tmp_max_sd    tmp_min_sd       pcp_ave        pcp_sd      pcp_skew       wet_dry       wet_wet      pcp_days       pcp_hhr       slr_ave       dew_ave       wnd_ave  
    -3.85400     -11.22550       5.96780       6.85087      86.39900       6.06178       3.11537       0.35034       0.35148      12.62500      14.95550       6.75521       0.82195       4.56297  
    -2.61015     -10.52120       5.38767       6.58842      78.23370       6.37929       3.75882       0.32252       0.37895      11.87500      19.62140      10.53140       0.84406       4.55669  
     2.90300      -5.44724       5.64149       5.97245     107.71000       6.82147       3.02986       0.41754       0.39766      16.03120      16.20040      13.95020       0.82269       4.29233  
    10.76820       0.70093       5.88891       3.82019     105.80500       7.10884       3.65993       0.37844       0.40041      15.21880      25.34570      17.20400       0.76050       3.87896  
    17.70080       6.05997       5.58629       3.89173     101.01000       6.91564       4.33750       0.35938       0.39040      14.96880      29.96350      19.82540       0.73393       3.33184  
    23.13910      11.07940       4.99672       3.75738     100.80800       6.22906       2.70148       0.35341       0.38961      14.43750      13.92150      21.60690       0.73990       3.04328  
    26.17840      14.04800       3.99541       3.05145      89.67160       6.27165       4.65434       0.34186       0.36854      13.90620      28.65890      22.28980       0.72973       2.81955  
    25.44170      13.39160       4.14247       3.43035      93.52910       6.83187       4.81805       0.30703       0.37653      12.78120      28.99470      20.11920       0.73134       2.66905  
    20.67100       9.24321       4.74764       4.20601      87.38750       7.54586       4.64814       0.29215       0.36565      11.28120      25.71010      15.81410       0.73960       2.98772  
    13.16880       3.69362       4.84075       4.22742     102.87100       9.04166       5.56806       0.28171       0.36883      12.03120      38.56270      10.58310       0.76150       3.57339  
     6.41457      -0.70635       4.84052       4.24085     107.80900       7.39500       3.13240       0.36628       0.38288      13.87500      20.78400       6.31208       0.78515       4.10482  
    -0.53351      -6.84607       5.26741       5.77755      94.22100       6.90283       3.98101       0.37523       0.36239      13.62500      23.77060       5.34323       0.79714       4.64063  
436n719w                       43.55590     -71.87500     304.00000        32  
 tmp_max_ave   tmp_min_ave    tmp_max_sd    tmp_min_sd       pcp_ave        pcp_sd      pcp_skew       wet_dry       wet_wet      pcp_days       pcp_hhr       slr_ave       dew_ave       wnd_ave  
    -4.07308     -11.36830       6.04500       6.95090      83.09420       5.67816       3.03617       0.35790       0.36019      13.18750      13.48770       6.70957       0.82830       4.79147  
    -2.90601     -10.72460       5.47774       6.66481      75.60420       5.98600       3.56306       0.34141       0.38386      12.78120      17.44740      10.46670       0.84898       4.76789  
     2.58224      -5.55410       5.66358       6.06596     103.58700       6.33782       2.91252       0.43545       0.40748      16.71880      16.26170      13.83220       0.82721       4.50237  
    10.54890       0.68500       5.92129       3.91898     101.07900       6.56543       3.30787       0.37901       0.39554      15.40620      19.93170      17.15840       0.75582       4.06062  
    17.57830       6.08727       5.52792       3.89772      99.51820       6.71476       4.23446       0.37805       0.40080      15.59380      27.76850      19.79300       0.72791       3.45377  
    22.93970      11.03590       4.87989       3.76637      99.37950       6.17142       2.85056       0.35343       0.40501      14.96880      16.10180      21.64900       0.73746       3.14310  
    25.85530      13.86890       3.92585       3.07859      85.70340       6.02645       4.63718       0.33091       0.37783      13.81250      27.74560      22.34580       0.72937       2.89967  
    25.07670      13.23900       4.07281       3.46012      88.79190       6.53419       4.82355       0.31993       0.36905      13.12500      26.83480      20.11220       0.73349       2.74466  
    20.36040       9.16090       4.71330       4.23285      86.17850       7.59679       4.91426       0.28667       0.37222      11.25000      27.10520      15.70830       0.74116       3.10307  
    12.87780       3.68884       4.88643       4.23570     100.06100       8.58090       5.62142       0.29680       0.36341      12.46880      37.70170      10.46050       0.76204       3.74299  
     6.14165      -0.75530       4.87941       4.28058     104.32000       7.01620       3.06735       0.38057       0.37768      14.56250      18.62710       6.20137       0.78616       4.35214  
    -0.80634      -6.98171       5.28725       5.88624      93.05270       6.75576       4.13110       0.41120       0.37045      14.59380      24.91700       5.28966       0.80424       4.88056  
436n722w                       43.55590     -72.18750     549.00000        32  
 tmp_max_ave   tmp_min_ave    tmp_max_sd    tmp_min_sd       pcp_ave        pcp_sd      pcp_skew       wet_dry       wet_wet      pcp_days       pcp_hhr       slr_ave       dew_ave       wnd_ave  
    -4.32324     -11.66410       6.14613       7.17284      83.83810       5.51196       3.00298       0.40613       0.36808      14.68750      14.63340       6.60006       0.83996       4.98324  
    -3.22323     -11.09260       5.54075       6.85911      76.84680       5.88827       3.55239       0.36645       0.39690      14.09380      17.58280      10.30490       0.85906       4.92105  
     2.19667      -5.80559       5.68140       6.25477     105.25600       6.18004       2.88923       0.46043       0.41391      17.96880      16.40160      13.53640       0.83850       4.66149  
    10.25420       0.56504       5.92394       4.00991     103.28500       6.42442       3.01456       0.38710       0.40875      16.43750      17.01150      16.85760       0.75794       4.21578  
    17.34130       5.98641       5.46446       3.94754     105.48700       6.75725       3.97243       0.39744       0.40727      16.34380      25.11350      19.52570       0.73115       3.56184  
    22.63780      10.84350       4.79341       3.79743     105.29500       6.47513       2.95250       0.37773       0.39641      15.68750      17.30860      21.47730       0.74273       3.22448  
    25.50050      13.58680       3.86021       3.15316      91.29900       6.17169       4.35118       0.35171       0.38197      14.56250      25.92760      22.23370       0.73577       2.96151  
    24.66750      12.94380       4.01614       3.52960      92.04440       6.51073       4.32725       0.32852       0.37671      13.68750      24.42850      19.96260       0.74145       2.81237  
    20.01080       8.95337       4.69054       4.27686      89.26080       7.84129       5.11167       0.29131       0.36729      11.65620      30.87950      15.46650       0.74820       3.21471  
    12.51780       3.56112       4.93497       4.29822     101.75100       8.27643       5.27156       0.31449       0.36620      13.31250      36.84020      10.19530       0.76901       3.90595  
     5.83237      -0.90426       4.93335       4.35523     105.15000       6.87470       3.08753       0.40087       0.38124      15.65620      17.69340       6.02221       0.79357       4.57269  
    -1.10063      -7.19951       5.31554       6.01829      95.28080       6.68267       4.15639       0.42469       0.39053      15.84380      25.25940       5.17181       0.81709       5.07653  
439n712w                       43.86810     -71.25000     226.00000        32  
 tmp_max_ave   tmp_min_ave    tmp_max_sd    tmp_min_sd       pcp_ave        pcp_sd      pcp_skew       wet_dry       wet_wet      pcp_days       pcp_hhr       slr_ave       dew_ave       wnd_ave  
    -4.61908     -12.32300       5.92753       6.95273      94.77420       6.70596       3.35411       0.38406       0.35909      13.75000      16.47190       6.34665       0.84609       4.20332  
    -3.34624     -11.53310       5.28388       6.63675      83.32300       6.56454       3.54152       0.35670       0.38425      13.09380      17.84480       9.97384       0.86921       4.19485  
     1.77127      -6.51264       5.41949       6.13100     116.00600       7.06818       2.97171       0.43919       0.40511      17.12500      18.39120      13.26080       0.86460       3.95664  
     9.32670      -0.48474       5.87815       3.98832     116.92900       7.44218       3.33224       0.41002       0.39539      16.28120      22.02650      16.69860       0.81261       3.59632  
    16.62900       5.27809       5.68217       3.95158     112.97100       7.20672       4.10480       0.40959       0.40602      16.62500      28.81540      19.09760       0.76142       3.20063  
    22.09230      10.30020       4.99210       3.71060     119.97200       7.27560       2.96279       0.39440       0.39315      15.50000      20.64040      20.91950       0.76310       2.95429  
    25.08210      13.24110       3.95191       3.04191     104.94800       6.57562       3.71725       0.39130       0.38703      15.90620      25.12850      21.59830       0.75774       2.74411  
    24.44640      12.52470       4.10309       3.43079     105.81600       7.06323       3.93116       0.34074       0.37611      14.12500      25.64040      19.57340       0.75433       2.62102  
    19.77120       8.45599       4.71752       4.18409      95.53280       7.92238       4.33616       0.29795       0.38032      11.75000      28.66430      15.41590       0.75802       2.91263  
    12.10460       2.84336       4.86047       4.31489     114.77800       9.66027       4.79946       0.31966       0.35872      12.71880      34.78120      10.11270       0.79096       3.38406  
     5.32732      -1.56179       4.74640       4.25771     120.65100       8.21770       3.26078       0.40580       0.37526      14.90620      23.70940       6.00983       0.81378       3.79964  
    -1.41220      -7.86103       5.16909       5.95608     101.84300       7.18388       3.81392       0.40882       0.37654      15.18750      25.20420       5.01778       0.82583       4.25072  
439n716w                       43.86810     -71.56250     555.00000        32  
 tmp_max_ave   tmp_min_ave    tmp_max_sd    tmp_min_sd       pcp_ave        pcp_sd      pcp_skew       wet_dry       wet_wet      pcp_days       pcp_hhr       slr_ave       dew_ave       wnd_ave  
    -4.85363     -12.50340       6.00207       7.02586      89.59880       6.09797       3.20919       0.41811       0.36364      14.78120      14.77950       6.23537       0.85088       4.32270  
    -3.63948     -11.71570       5.36055       6.68760      78.82470       5.97972       3.43339       0.37969       0.39024      14.09380      15.67290       9.81454       0.87164       4.31127  
     1.47489      -6.61853       5.48082       6.20886     109.25000       6.41515       2.89407       0.44762       0.41434      17.87500      17.40890      13.11940       0.86737       4.07958  
     9.07541      -0.58527       5.99853       4.10205     108.55800       6.66798       3.15437       0.41446       0.40917      17.03120      17.85500      16.68510       0.81112       3.71806  
    16.56130       5.17124       5.73661       4.05478     108.51800       6.88926       3.95506       0.40088       0.41713      16.78120      25.45560      19.12480       0.75399       3.31208  
    22.02680      10.19150       4.92369       3.79971     114.47100       6.95264       2.92006       0.39651       0.39122      15.65620      19.47240      21.00480       0.75587       3.07421  
    24.85430      13.05930       3.90993       3.09195      98.38980       6.33470       3.88001       0.37897       0.37295      15.25000      22.60990      21.75980       0.75318       2.84983  
    24.14330      12.35790       4.04270       3.47421      96.58120       6.55241       4.19057       0.33333       0.37444      13.93750      23.52910      19.68690       0.75355       2.69610  
    19.45250       8.27924       4.70365       4.25359      91.83100       7.70144       4.39139       0.29846       0.37666      11.78120      27.15800      15.34950       0.76082       2.98988  
    11.79050       2.74734       4.93642       4.30949     108.38500       9.02121       5.19708       0.33213       0.36986      13.68750      38.33380      10.01610       0.79356       3.47811  
     5.00478      -1.65676       4.79791       4.28998     115.21700       7.65492       3.19461       0.43392       0.37945      15.81250      20.29370       5.88073       0.81696       3.94811  
    -1.71964      -8.06960       5.20637       6.06466      99.26240       6.92506       4.20891       0.46104       0.37859      16.34380      28.63490       4.91919       0.83371       4.36566  
439n719w                       43.86810     -71.87500     540.00000        32  
 tmp_max_ave   tmp_min_ave    tmp_max_sd    tmp_min_sd       pcp_ave        pcp_sd      pcp_skew       wet_dry       wet_wet      pcp_days       pcp_hhr       slr_ave       dew_ave       wnd_ave  
    -4.98668     -12.67520       6.12835       7.28465      86.64900       5.60403       3.09377       0.45798       0.37984      16.12500      14.81610       6.23101       0.85580       4.53582  
    -3.83218     -11.94280       5.51321       6.93659      77.00600       5.62374       3.53166       0.44198       0.39679      15.59380      16.98080       9.84542       0.87532       4.49714  
     1.28983      -6.62794       5.51742       6.37106     105.91500       5.97340       2.85722       0.47423       0.42384      18.87500      16.71560      13.07690       0.86896       4.26778  
     9.14186      -0.35647       5.95837       4.10890     103.72300       6.19002       3.08330       0.41397       0.41861      17.46880      18.75020      16.56500       0.79994       3.90622  
    16.61270       5.29110       5.61376       4.04518     106.96700       6.65806       3.81869       0.39955       0.41621      16.96880      21.84770      19.12780       0.74743       3.42709  
    22.00220      10.22060       4.83896       3.80537     110.60500       6.74509       3.02878       0.40749       0.39526      15.81250      18.28970      21.10950       0.75322       3.14885  
    24.77380      12.96660       3.87810       3.13859      96.18660       6.08617       3.62132       0.34902       0.39004      15.06250      19.84250      21.87700       0.75129       2.90260  
    24.00950      12.30170       3.98370       3.49494      91.01160       6.07083       4.02105       0.34694       0.37086      14.15620      20.73470      19.72390       0.75341       2.74974  
    19.34640       8.31559       4.69499       4.26427      89.51930       7.51952       4.44903       0.29688       0.37760      12.00000      24.94220      15.20540       0.76088       3.08884  
    11.71860       2.90173       4.96677       4.29354     104.41700       8.32443       4.99179       0.33962       0.39394      14.43750      32.55690       9.86569       0.79002       3.64215  
     4.93094      -1.57061       4.86424       4.35828     111.88900       7.21285       3.18681       0.44630       0.39002      16.90620      18.74840       5.74977       0.81675       4.19308  
    -1.84388      -8.08289       5.26347       6.16457      98.23340       6.65157       4.42942       0.49881       0.39184      17.62500      29.53480       4.86793       0.84015       4.59007  
439n722w                       43.86810     -72.18750     177.00000        32  
 tmp_max_ave   tmp_min_ave    tmp_max_sd    tmp_min_sd       pcp_ave        pcp_sd      pcp_skew       wet_dry       wet_wet      pcp_days       pcp_hhr       slr_ave       dew_ave       wnd_ave  
    -5.06815     -12.81390       6.25637       7.59563      86.15350       5.28148       3.00402       0.50952       0.39860      17.87500      14.47120       6.22939       0.86087       4.68115  
    -3.95057     -12.16060       5.63075       7.24551      77.42680       5.47761       3.67314       0.47790       0.40775      16.93750      18.75980       9.87668       0.87935       4.61269  
     1.22789      -6.63644       5.60689       6.59406     106.56300       5.80587       2.90322       0.51368       0.43741      20.71880      16.22620      12.95070       0.86954       4.40919  
     9.29698      -0.14389       5.95997       4.15915     103.43200       6.06369       3.05881       0.42448       0.42535      18.00000      18.51230      16.33590       0.78899       4.06756  
    16.70470       5.40187       5.51280       4.04405     111.06000       6.63113       3.58759       0.42588       0.41873      17.68750      21.24240      19.04160       0.74465       3.52407  
    22.03940      10.22300       4.78697       3.85657     113.27800       6.82619       3.13704       0.41861       0.40755      16.56250      18.29240      21.13550       0.75435       3.20116  
    24.79960      12.90160       3.85635       3.22478     101.13000       6.14323       3.39120       0.38057       0.38956      15.56250      19.26270      21.95330       0.75117       2.93830  
    23.98860      12.23930       3.96516       3.58189      92.09540       5.86352       3.52077       0.35539       0.38229      14.46880      17.19410      19.72020       0.75430       2.79461  
    19.32580       8.32300       4.70595       4.31021      90.68590       7.45667       4.49443       0.30700       0.37965      12.59380      26.36440      15.04890       0.76188       3.18047  
    11.71140       2.97907       5.01091       4.34327     103.71100       7.91845       4.77899       0.36095       0.39381      15.15620      31.03810       9.67227       0.78933       3.78326  
     4.92322      -1.53214       4.94194       4.45750     110.57200       6.86921       3.19251       0.47757       0.39759      18.15620      18.79770       5.62017       0.81907       4.38580  
    -1.90921      -8.12975       5.31693       6.36002      98.35930       6.38321       4.38521       0.52577       0.40703      18.65620      28.57960       4.82320       0.84647       4.75309  
442n712w                       44.18040     -71.25000     556.00000        32  
 tmp_max_ave   tmp_min_ave    tmp_max_sd    tmp_min_sd       pcp_ave        pcp_sd      pcp_skew       wet_dry       wet_wet      pcp_days       pcp_hhr       slr_ave       dew_ave       wnd_ave  
    -5.56716     -13.71980       5.99576       7.19886      94.11430       6.30703       3.42034       0.46652       0.38563      16.53120      16.48520       6.01977       0.86987       4.17888  
    -4.34539     -12.91180       5.29408       6.90342      80.97830       5.85531       3.31662       0.45363       0.39604      15.78120      15.07560       9.56392       0.88677       4.17249  
     0.25604      -7.77937       5.17011       6.56289     113.86900       6.42754       2.87053       0.51821       0.42992      19.84380      16.81170      12.79780       0.89966       3.96236  
     7.82867      -1.30922       5.98226       4.21415     115.46000       6.59827       2.81269       0.45187       0.41297      18.31250      18.19750      16.15730       0.84001       3.64276  
    15.70960       4.65777       5.73415       4.03414     113.99700       6.70653       3.62881       0.42353       0.41696      17.68750      23.84210      18.58850       0.76574       3.31747  
    21.17770       9.72581       4.95882       3.77376     125.70000       7.48902       3.04424       0.43230       0.41373      16.84380      20.62120      20.50440       0.76611       3.10357  
    23.96590      12.53680       3.87148       3.07988     106.88400       6.28431       3.20197       0.42733       0.39548      16.59380      20.06000      21.25400       0.76796       2.88437  
    23.23950      11.75530       4.06332       3.49879     101.86000       6.47846       3.49000       0.35838       0.38055      14.78120      20.52440      19.21450       0.76703       2.74122  
    18.64520       7.68223       4.68479       4.22832      93.21330       7.66382       4.37455       0.30035       0.38325      12.31250      25.15190      14.98910       0.77124       3.03513  
    10.88020       2.17782       4.97501       4.40107     114.59500       9.04915       4.60379       0.37773       0.39673      15.28120      31.24110       9.58802       0.80843       3.47399  
     4.08718      -2.42294       4.75288       4.44755     120.94400       7.93871       3.45797       0.45588       0.39855      17.25000      26.46170       5.62364       0.83485       3.88120  
    -2.47106      -9.19722       5.14126       6.30681     102.35600       6.77507       4.08098       0.51923       0.38840      17.78120      27.95710       4.68626       0.85600       4.23982  
442n716w                       44.18040     -71.56250    1088.00000        32  
 tmp_max_ave   tmp_min_ave    tmp_max_sd    tmp_min_sd       pcp_ave        pcp_sd      pcp_skew       wet_dry       wet_wet      pcp_days       pcp_hhr       slr_ave       dew_ave       wnd_ave  
    -5.68298     -13.67820       6.14988       7.27898      92.26190       5.74622       3.24144       0.51385       0.41513      18.59380      15.07680       5.82628       0.87172       4.23052  
    -4.47070     -12.80760       5.47328       6.92705      79.71330       5.40233       3.51978       0.51051       0.42031      17.84380      16.87150       9.27567       0.88665       4.20640  
     0.19625      -7.66422       5.33390       6.58284     110.75400       5.88397       2.84404       0.55375       0.44234      21.40620      15.60650      12.38480       0.89660       4.01692  
     7.81773      -1.32340       5.99091       4.32067     109.95400       6.02856       2.84839       0.44509       0.42834      19.18750      18.68770      15.82650       0.83517       3.71245  
    15.63970       4.54694       5.70292       4.11953     112.30200       6.46069       3.59813       0.42054       0.42784      18.18750      20.92640      18.45250       0.76430       3.37674  
    21.06880       9.53667       4.88602       3.86834     121.12900       7.16235       3.18657       0.43583       0.42047      17.09380      20.10810      20.48400       0.76593       3.16599  
    23.75540      12.27580       3.84546       3.19399     101.13100       5.94081       3.21834       0.41756       0.38667      16.40620      16.99950      21.32650       0.76887       2.93826  
    22.98410      11.49850       3.99886       3.56803      94.53960       6.10534       3.96803       0.37549       0.39095      15.18750      24.71570      19.25650       0.77033       2.77908  
    18.37970       7.48585       4.68639       4.31369      91.32520       7.47667       4.49626       0.31895       0.39344      13.34380      26.26280      14.81960       0.77662       3.07898  
    10.64900       2.17374       5.00709       4.32197     110.21300       8.41152       4.74472       0.40042       0.40769      16.25000      33.60540       9.35888       0.81140       3.52498  
     3.88799      -2.43014       4.80764       4.42342     118.79500       7.41715       3.40850       0.52137       0.40723      19.03120      21.43410       5.41041       0.83852       3.97616  
    -2.63453      -9.12077       5.24464       6.27653     102.39700       6.45745       4.42353       0.55556       0.40422      19.25000      29.51080       4.50386       0.86120       4.27675  
442n719w                       44.18040     -71.87500     364.00000        32  
 tmp_max_ave   tmp_min_ave    tmp_max_sd    tmp_min_sd       pcp_ave        pcp_sd      pcp_skew       wet_dry       wet_wet      pcp_days       pcp_hhr       slr_ave       dew_ave       wnd_ave  
    -5.73116     -13.70990       6.28769       7.61163      91.88980       5.33018       3.05919       0.56125       0.42278      20.03120      14.59860       5.79721       0.87277       4.35271  
    -4.54376     -12.86170       5.62673       7.19507      80.25980       5.19289       3.75313       0.52703       0.43750      19.00000      17.71020       9.25065       0.88822       4.30344  
     0.25228      -7.55713       5.46426       6.76535     110.97900       5.63919       2.95625       0.57836       0.44061      22.62500      16.88290      12.28180       0.89471       4.12907  
     8.06959      -1.10435       6.01280       4.37292     107.70100       5.69447       2.76459       0.44985       0.43740      19.71880      16.66810      15.71210       0.82581       3.83381  
    15.80900       4.67036       5.62701       4.14053     115.13600       6.38915       3.47201       0.44359       0.42263      18.78120      21.97360      18.45730       0.76151       3.44005  
    21.19240       9.55065       4.82890       3.91221     121.82400       7.07096       3.17589       0.45885       0.41682      17.46880      18.81570      20.57980       0.76611       3.18340  
    23.83580      12.21160       3.83845       3.29505     104.82900       5.95261       2.93455       0.42333       0.37996      16.53120      16.07510      21.48050       0.76826       2.94231  
    23.04970      11.48810       3.95787       3.62855      94.49810       5.84909       3.67157       0.38788       0.39437      15.53120      22.91660      19.31090       0.77000       2.79207  
    18.43400       7.59027       4.70611       4.36834      91.68030       7.32939       4.54185       0.33143       0.39081      13.59380      26.54280      14.71530       0.77608       3.13544  
    10.72980       2.29285       5.04081       4.38057     108.21800       7.78087       4.42161       0.39780       0.41713      16.78120      27.43320       9.21594       0.81032       3.62720  
     3.95503      -2.29255       4.87984       4.50460     118.38000       6.98041       3.26608       0.54402       0.41589      20.06250      20.64910       5.28208       0.83881       4.14399  
    -2.64582      -9.01265       5.31569       6.44372     103.50400       6.16079       4.44859       0.57362       0.42033      20.59380      29.05900       4.43085       0.86286       4.41639  
442n722w                       44.18040     -72.18750     377.00000        32  
 tmp_max_ave   tmp_min_ave    tmp_max_sd    tmp_min_sd       pcp_ave        pcp_sd      pcp_skew       wet_dry       wet_wet      pcp_days       pcp_hhr       slr_ave       dew_ave       wnd_ave  
    -5.68380     -13.69290       6.40231       7.95784      91.66090       5.06897       2.95021       0.57453       0.43134      20.93750      13.62470       5.84695       0.87290       4.44225  
    -4.51276     -12.91900       5.75272       7.55030      81.04830       5.07856       3.78447       0.53455       0.44356      19.65620      18.45100       9.36033       0.88909       4.36730  