plant.ini: written by SWAT+ editor v2.3.3 on 2023-10-25 08:58 for SWAT+ rev.60.5.7
pcom_name          plt_cnt  rot_yr_ini          plt_name     lc_status      lai_init       bm_init      phu_init      plnt_pop      yrs_init      rsd_init  
cosy_comm                2         1  
                                        corn             n       0.00000       0.00000       0.00000       0.00000       0.00000   10000.00000  
                                        soyb             n       0.00000       0.00000       0.00000       0.00000       0.00000   10000.00000  
corn_comm                1         1  
                                        CORN             n       0.00000       0.00000       0.00000       0.00000       0.00000   10000.00000  
agrr_comm                1         1  
                                        AGRR             n       0.00000       0.00000       0.00000       0.00000       0.00000   10000.00000  
wetw_comm                1         1  
                                        wetw             y       2.00000   50000.00000       0.00000       0.00000       1.00000   10000.00000  
past_comm                1         1  
                                        PAST             y       0.00000   20000.00000       0.00000       0.00000       1.00000   10000.00000  
fesc_comm                1         1  
                                        FESC             n       0.00000       0.00000       0.00000       0.00000       0.00000   10000.00000  
frst_comm                1         1  
                                        FRST             y       2.00000   50000.00000       0.00000       0.00000       1.00000   10000.00000  
frse_comm                1         1  
                                        FRSE             y       2.00000   50000.00000       0.00000       0.00000       1.00000   10000.00000  
riwn_comm                1         1  
                                        RIWN             n       0.00000       0.00000       0.00000       0.00000       0.00000   10000.00000  
frsd_comm                1         1  
                                        FRSD             y       2.00000   50000.00000       0.00000       0.00000       1.00000   10000.00000  
riwf_comm                1         1  
                                        RIWF             n       0.00000       0.00000       0.00000       0.00000       0.00000   10000.00000  
alfa_comm                1         1  
                                        ALFA             n       0.00000       0.00000       0.00000       0.00000       0.00000   10000.00000  
soyb_comm                1         1  
                                        SOYB             n       0.00000       0.00000       0.00000       0.00000       0.00000   10000.00000  
sbaf_comm                1         1  
                                        SBAF             n       0.00000       0.00000       0.00000       0.00000       0.00000   10000.00000  
oats_comm                1         1  
                                        OATS             y       2.00000    2000.00000       0.00000       0.00000       1.00000   10000.00000  
upwn_comm                1         1  
                                        UPWN             n       0.00000       0.00000       0.00000       0.00000       0.00000   10000.00000  
rnge_comm                1         1  
                                        RNGE             y       2.00000   20000.00000       0.00000       0.00000       1.00000   10000.00000  
wwht_comm                1         1  
                                        WWHT             y       2.00000    2000.00000       0.00000       0.00000       1.00000   10000.00000  
rngb_comm                1         1  
                                        RNGB             y       2.00000   50000.00000       0.00000       0.00000       1.00000   10000.00000  
