plants.plt: written by SWAT+ editor v2.3.3 on 2023-10-25 08:58 for SWAT+ rev.60.5.7
name                      plnt_typ          gro_trig       nfix_co      days_mat          bm_e      harv_idx       lai_pot      frac_hu1      lai_max1      frac_hu2      lai_max2   hu_lai_decl     dlai_rate    can_ht_max     rt_dp_max       tmp_opt      tmp_base    frac_n_yld    frac_p_yld     frac_n_em     frac_n_50    frac_n_mat     frac_p_em     frac_p_50    frac_p_mat   harv_idx_ws    usle_c_min     stcon_max           vpd    frac_stcon        ru_vpd        co2_hi       bm_e_hi   plnt_decomp       lai_min   bm_tree_acc       yrs_mat   bm_tree_max        ext_co   leaf_tov_mn   leaf_tov_mx     bm_dieoff     rt_st_beg     rt_st_end     plnt_pop1     frac_lai1     plnt_pop2     frac_lai2   frac_sw_gro      aeration    rsd_pctcov    rsd_covfac  description
AGRL                   warm_annual          temp_gro       0.00000     110.00000      33.50000       0.45000       3.00000       0.15000       0.05000       0.50000       0.95000       0.64000       1.00000       1.00000       2.00000      30.00000      11.00000       0.01000       0.00320       0.04000       0.01000       0.01000       0.00600       0.00220       0.00180       0.25000       0.20000       0.00500       4.00000       0.75000       8.50000     660.00000      36.00000       0.05000       0.00000       0.00000       0.00000       0.00000       0.65000      12.00000       3.00000       0.10000       0.40000       0.20000       0.00000       0.00000       0.00000       0.00000       0.50000       0.20000       0.35000       0.05000  Agricultural Land-Generic
AGRR                   warm_annual          temp_gro       0.00000     110.00000      39.00000       0.50000       3.00000       0.15000       0.05000       0.50000       0.95000       0.70000       1.00000       2.50000       2.00000      25.00000       8.00000       0.01000       0.00160       0.04000       0.01000       0.01000       0.00480       0.00180       0.00140       0.30000       0.20000       0.00700       4.00000       0.75000       7.20000     660.00000      45.00000       0.05000       0.00000       0.00000       0.00000       0.00000       0.65000      12.00000       3.00000       0.10000       0.40000       0.20000       0.00000       0.00000       0.00000       0.00000       0.50000       0.20000       0.35000       0.05000  Agricultural Land-Row Crops
AGRC                   cold_annual          temp_gro       0.00000     110.00000      30.00000       0.40000       4.00000       0.05000       0.05000       0.45000       0.95000       0.50000       1.00000       0.90000       1.30000      18.00000       0.00000       0.02000       0.00220       0.06000       0.02000       0.01000       0.00530       0.00200       0.00120       0.20000       0.03000       0.00600       4.00000       0.75000       6.00000     660.00000      39.00000       0.05000       0.00000       0.00000       0.00000       0.00000       0.65000      12.00000       3.00000       0.10000       0.40000       0.20000       0.00000       0.00000       0.00000       0.00000       0.50000       0.20000       0.53000       0.02800  Agricultural Land-Close-grown
ORCD                     perennial          temp_gro       0.00000       0.00000      15.00000       0.10000       4.00000       0.10000       0.15000       0.50000       0.75000       0.99000       1.00000       3.50000       2.00000      20.00000       7.00000       0.00190       0.00040       0.00600       0.00200       0.00150       0.00070       0.00040       0.00030       0.05000       0.00100       0.00700       4.00000       0.75000       3.00000     660.00000      20.00000       0.05000       0.75000       0.30000       5.00000       0.00000       0.65000      12.00000       3.00000       0.10000       0.40000       0.20000       0.00000       0.00000       0.00000       0.00000       0.50000       0.20000       0.50000       0.07000  Orchard
HAY                      perennial          temp_gro       0.00000       0.00000      35.00000       0.90000       4.00000       0.05000       0.05000       0.49000       0.95000       0.99000       0.10000       0.50000       2.00000      25.00000      12.00000       0.02000       0.00330       0.06000       0.02000       0.01000       0.00840       0.00320       0.00190       0.90000       0.00300       0.00500       4.00000       0.75000      10.00000     660.00000      36.00000       0.05000       0.00000       0.30000       2.00000       0.00000       0.65000      12.00000       3.00000       0.10000       0.40000       0.20000       0.00000       0.00000       0.00000       0.00000       0.50000       0.20000       0.50000       0.07000  Hay
FRST                     perennial          temp_gro       0.00000       0.00000      15.00000       0.76000       5.00000       0.05000       0.05000       0.40000       0.95000       0.99000       1.00000       6.00000       3.50000      30.00000      10.00000       0.00150       0.00030       0.00600       0.00200       0.00150       0.00070       0.00040       0.00030       0.01000       0.00100       0.00200       4.00000       0.75000       8.00000     660.00000      16.00000       0.05000       0.75000       0.30000      50.00000    1000.00000       0.65000      12.00000       3.00000       0.10000       0.40000       0.20000       0.00000       0.00000       0.00000       0.00000       0.50000       0.20000       0.50000       0.07000  Forest-Mixed
FRSD                     perennial          temp_gro       0.00000       0.00000      15.00000       0.76000       5.00000       0.05000       0.05000       0.40000       0.95000       0.99000       1.00000       6.00000       3.50000      30.00000      10.00000       0.00150       0.00030       0.00600       0.00200       0.00150       0.00070       0.00040       0.00030       0.01000       0.00100       0.00200       4.00000       0.75000       8.00000     660.00000      16.00000       0.05000       0.75000       0.30000      10.00000    1000.00000       0.65000      12.00000       3.00000       0.10000       0.40000       0.20000       0.00000       0.00000       0.00000       0.00000       0.50000       0.20000       0.50000       0.07000  Forest-Deciduous
FRSE                     perennial          temp_gro       0.00000       0.00000      15.00000       0.76000       5.00000       0.15000       0.70000       0.25000       0.99000       0.99000       1.00000      10.00000       3.50000      30.00000       0.00000       0.00150       0.00030       0.00600       0.00200       0.00150       0.00070       0.00040       0.00030       0.60000       0.00100       0.00200       4.00000       0.75000       8.00000     660.00000      16.00000       0.05000       0.75000       0.30000      30.00000    1000.00000       0.65000      12.00000       3.00000       0.10000       0.40000       0.20000     100.00000       0.05000    1000.00000       0.95000       0.50000       0.20000       0.50000       0.07000  Forest-Evergreen
WETL                     perennial          temp_gro       0.00000       0.00000      47.00000       0.90000       6.00000       0.10000       0.20000       0.20000       0.95000       0.70000       1.00000       2.50000       2.20000      25.00000      12.00000       0.01000       0.00220       0.03000       0.01000       0.00380       0.00140       0.00100       0.00070       0.90000       0.00300       0.00500       4.00000       0.75000       8.50000     660.00000      54.00000       0.05000       0.00000       0.30000       5.00000       0.00000       0.65000      12.00000       3.00000       0.10000       0.40000       0.20000       0.00000       0.00000       0.00000       0.00000       0.50000       0.20000       0.50000       0.07000  Wetlands-Mixed
WETF                     perennial          temp_gro       0.00000       0.00000      15.00000       0.76000       5.00000       0.05000       0.05000       0.40000       0.95000       0.99000       1.00000       6.00000       3.50000      30.00000      10.00000       0.00150       0.00030       0.00600       0.00200       0.00150       0.00070       0.00040       0.00030       0.01000       0.00100       0.00200       4.00000       0.75000       8.00000     660.00000      16.00000       0.05000       0.00000       0.30000      30.00000    1000.00000       0.65000      12.00000       3.00000       0.10000       0.40000       0.20000       0.00000       0.00000       0.00000       0.00000       0.50000       0.20000       0.50000       0.07000  Wetlands-Forested
WETN                     perennial          temp_gro       0.00000       0.00000      47.00000       0.90000       6.00000       0.10000       0.20000       0.20000       0.95000       0.70000       1.00000       2.50000       2.20000      25.00000      12.00000       0.01000       0.00220       0.03000       0.01000       0.00380       0.00140       0.00100       0.00070       0.90000       0.00300       0.00500       4.00000       0.75000       8.50000     660.00000      54.00000       0.05000       0.00000       0.30000       2.00000       0.00000       0.65000      12.00000       3.00000       0.10000       0.40000       0.20000       0.00000       0.00000       0.00000       0.00000       0.50000       0.20000       0.50000       0.07000  Wetlands-Non-Forested
PAST                     perennial          temp_gro       0.00000       0.00000      35.00000       0.90000       4.00000       0.05000       0.05000       0.49000       0.95000       0.99000      10.00000       0.50000       2.00000      25.00000      12.00000       0.02000       0.00330       0.06000       0.02000       0.01000       0.00840       0.00320       0.00190       0.90000       0.00300       0.00500       4.00000       0.75000      10.00000     660.00000      36.00000       0.05000       0.00000       0.30000       2.00000       0.00000       0.65000      12.00000       3.00000       0.10000       0.40000       0.20000       0.00000       0.00000       0.00000       0.00000       0.50000       0.20000       0.50000       0.07000  Pasture
SPAS                     perennial          temp_gro       0.00000       0.00000      35.00000       0.90000       4.00000       0.05000       0.05000       0.49000       0.95000       0.99000       1.00000       0.50000       2.00000      25.00000      12.00000       0.02000       0.00330       0.06000       0.02000       0.01000       0.00840       0.00320       0.00190       0.90000       0.00300       0.00500       4.00000       0.75000      10.00000     660.00000      36.00000       0.05000       0.00000       0.30000       2.00000       0.00000       0.65000      12.00000       3.00000       0.10000       0.40000       0.20000       0.00000       0.00000       0.00000       0.00000       0.50000       0.20000       0.50000       0.07000  Summer Pasture
WPAS                     perennial          temp_gro       0.00000       0.00000      30.00000       0.90000       4.00000       0.15000       0.01000       0.50000       0.95000       0.80000       1.00000       1.50000       2.00000      15.00000       0.00000       0.02000       0.00330       0.05000       0.02000       0.01000       0.00990       0.00220       0.00190       0.90000       0.00300       0.00500       4.00000       0.75000       8.00000     660.00000      39.00000       0.05000       0.00000       0.30000       2.00000       0.00000       0.65000      12.00000       3.00000       0.10000       0.40000       0.20000       0.00000       0.00000       0.00000       0.00000       0.50000       0.20000       0.50000       0.07000  Winter Pasture
RNGE                     perennial          temp_gro       0.00000       0.00000      34.00000       0.90000       2.50000       0.05000       0.10000       0.25000       0.70000       0.35000       1.00000       1.00000       2.00000      25.00000      12.00000       0.01000       0.00220       0.02000       0.01000       0.00500       0.00140       0.00100       0.00070       0.90000       0.00300       0.00500       4.00000       0.75000      10.00000     660.00000      39.00000       0.05000       0.00000       0.30000      10.00000       0.00000       0.33000      12.00000       3.00000       0.10000       0.40000       0.20000       0.00000       0.00000       0.00000       0.00000       0.50000       0.20000       0.50000       0.07000  Range-Grasses
RNGB                     perennial          temp_gro       0.00000       0.00000      34.00000       0.90000       2.00000       0.05000       0.10000       0.25000       0.70000       0.35000       1.00000       1.00000       2.00000      25.00000      12.00000       0.01000       0.00220       0.02000       0.01000       0.00500       0.00140       0.00100       0.00070       0.90000       0.00300       0.00500       4.00000       0.75000      10.00000     660.00000      39.00000       0.05000       0.00000       0.30000      10.00000       0.00000       0.33000      12.00000       3.00000       0.10000       0.40000       0.20000       0.00000       0.00000       0.00000       0.00000       0.50000       0.20000       0.50000       0.07000  Range-Brush
SWRN                     perennial          temp_gro       0.00000       0.00000      34.00000       0.90000       1.50000       0.05000       0.10000       0.25000       0.70000       0.35000       1.00000       1.00000       2.00000      25.00000      12.00000       0.01000       0.00220       0.02000       0.01000       0.00500       0.00140       0.00100       0.00070       0.90000       0.00300       0.00500       4.00000       0.75000      10.00000     660.00000      39.00000       0.05000       0.00000       0.30000      10.00000       0.00000       0.33000      12.00000       3.00000       0.10000       0.40000       0.20000       0.00000       0.00000       0.00000       0.00000       0.50000       0.20000       0.50000       0.02800  Southwestern US (Arid) Range
WATR                     perennial          temp_gro       0.00000       0.00000       0.00000       0.00000       0.00000       0.00000       0.00000       0.00000       0.00000       0.00000       0.00000       0.00000       0.00000       0.00000       0.00000       0.00000       0.00000       0.00000       0.00000       0.00000       0.00000       0.00000       0.00000       0.00000       0.00000       0.00000       0.00000       0.00000       0.00000       0.00000       0.00000       0.00000       0.00000       0.00000       0.00000       0.00000       0.00000       0.00000       0.00000       0.10000       0.00000       0.00000       0.00000       0.00000       0.00000       0.00000       0.00000       0.00000       0.00000       0.00000  Water
corn                   warm_annual          temp_gro       0.00000     120.00000      39.00000       0.50000       6.00000       0.15000       0.05000       0.50000       0.95000       0.70000       0.10000       2.50000       2.00000      25.00000       8.00000       0.01000       0.00160       0.04000       0.01000       0.01000       0.00480       0.00180       0.00140       0.30000       0.20000       0.00700       4.00000       0.75000       7.20000     660.00000      45.00000       0.05000       0.00000       0.00000       0.00000       0.00000       0.65000      12.00000       3.00000       0.10000       0.40000       0.20000       0.00000       0.00000       0.00000       0.00000       0.50000       0.20000       0.34000       0.05000  Corn
CSIL                   warm_annual          temp_gro       0.00000     120.00000      39.00000       0.90000       4.00000       0.15000       0.05000       0.50000       0.95000       0.70000       1.00000       2.50000       2.00000      25.00000       8.00000       0.01000       0.00160       0.04000       0.01000       0.01000       0.00480       0.00180       0.00140       0.90000       0.20000       0.00700       4.00000       0.75000       7.20000     660.00000      45.00000       0.05000       0.00000       0.00000       0.00000       0.00000       0.65000      12.00000       3.00000       0.10000       0.40000       0.20000       0.00000       0.00000       0.00000       0.00000       0.50000       0.20000       0.34000       0.05000  Corn Silage
SCRN                   warm_annual          temp_gro       0.00000     100.00000      39.00000       0.50000       2.50000       0.15000       0.05000       0.50000       0.95000       0.50000       0.50000       2.50000       2.00000      24.00000      12.00000       0.02000       0.00370       0.04000       0.01000       0.01000       0.00480       0.00180       0.00140       0.30000       0.20000       0.00700       4.00000       0.75000       7.20000     660.00000      45.00000       0.05000       0.00000       0.00000       0.00000       0.00000       0.65000      12.00000       3.00000       0.10000       0.40000       0.20000       0.00000       0.00000       0.00000       0.00000       0.50000       0.20000       0.34000       0.05000  Sweet Corn
EGAM                     perennial          temp_gro       0.00000       0.00000      21.00000       0.90000       2.50000       0.05000       0.18000       0.25000       0.90000       0.40000      10.00000       1.70000       2.00000      25.00000      12.00000       0.01000       0.00220       0.02000       0.01000       0.00700       0.00140       0.00100       0.00070       0.90000       0.00300       0.00500       4.00000       0.75000      10.00000     660.00000      58.00000       0.05000       0.00000       0.30000       2.00000       0.00000       0.31000      12.00000       3.00000       0.10000       0.40000       0.20000       0.00000       0.00000       0.00000       0.00000       0.50000       0.20000       0.50000       0.07000  Eastern Gamagrass
GRSG                   warm_annual          temp_gro       0.00000     110.00000      33.50000       0.45000       3.00000       0.15000       0.05000       0.50000       0.95000       0.64000       0.50000       1.00000       2.00000      30.00000      11.00000       0.01000       0.00320       0.04000       0.01000       0.01000       0.00600       0.00220       0.00180       0.25000       0.20000       0.00500       4.00000       0.75000       8.50000     660.00000      36.00000       0.05000       0.00000       0.00000       0.00000       0.00000       0.65000      12.00000       3.00000       0.10000       0.40000       0.20000       0.00000       0.00000       0.00000       0.00000       0.50000       0.20000       0.34000       0.05000  Grain Sorghum
SGHY                   warm_annual          temp_gro       0.00000       0.00000      33.50000       0.90000       4.00000       0.15000       0.05000       0.50000       0.95000       0.64000       0.50000       1.50000       2.00000      30.00000      11.00000       0.01000       0.00320       0.04000       0.01000       0.01000       0.00600       0.00220       0.00180       0.90000       0.20000       0.00500       4.00000       0.75000       8.50000     660.00000      36.00000       0.05000       0.00000       0.00000       2.00000       0.00000       0.65000      12.00000       3.00000       0.10000       0.40000       0.20000       0.00000       0.00000       0.00000       0.00000       0.50000       0.20000       0.50000       0.07000  Sorghum Hay
JHGR                     perennial          temp_gro       0.00000       0.00000      35.00000       0.90000       2.50000       0.15000       0.05000       0.57000       0.95000       0.50000       1.00000       1.00000       2.00000      30.00000      11.00000       0.02000       0.00280       0.04000       0.01000       0.01000       0.00600       0.00220       0.00180       0.90000       0.20000       0.00500       4.00000       0.75000       8.50000     660.00000      36.00000       0.05000       0.00000       0.30000       2.00000       0.00000       0.65000      12.00000       3.00000       0.10000       0.40000       0.20000       0.00000       0.00000       0.00000       0.00000       0.50000       0.20000       0.50000       0.07000  Johnsongrass
SUGC                     perennial          temp_gro       0.00000       0.00000      25.00000       0.50000       6.00000       0.15000       0.01000       0.50000       0.95000       0.75000       0.10000       3.00000       2.00000      25.00000      11.00000       0.00000       0.00000       0.01000       0.00400       0.00250       0.00750       0.00300       0.00190       0.01000       0.00100       0.00500       4.00000       0.75000      10.00000     660.00000      33.00000       0.05000       0.00000       0.30000       0.00000       0.00000       0.65000      12.00000       3.00000       0.10000       0.40000       0.20000       0.00000       0.00000       0.00000       0.00000       0.50000       0.20000       0.50000       0.07000  Sugarcane
SWHT                   cold_annual          temp_gro       0.00000     120.00000      35.00000       0.42000       4.00000       0.15000       0.05000       0.50000       0.95000       0.60000       1.00000       0.90000       2.00000      18.00000       0.00000       0.02000       0.00330       0.06000       0.02000       0.01000       0.00840       0.00320       0.00190       0.20000       0.03000       0.00600       4.00000       0.75000       8.00000     660.00000      46.00000       0.05000       0.00000       0.00000       0.00000       0.00000       0.65000      12.00000       3.00000       0.10000       0.40000       0.20000       0.00000       0.00000       0.00000       0.00000       0.50000       0.20000       0.53000       0.02800  Spring Wheat
WWHT                   cold_annual          temp_gro       0.00000     160.00000      30.00000       0.40000       4.00000       0.05000       0.05000       0.45000       0.95000       0.50000       1.00000       0.90000       1.30000      18.00000       0.00000       0.02000       0.00220       0.06000       0.02000       0.01000       0.00530       0.00200       0.00120       0.20000       0.03000       0.00600       4.00000       0.75000       6.00000     660.00000      39.00000       0.05000       0.00000       0.00000       0.00000       0.00000       0.65000      12.00000       3.00000       0.10000       0.40000       0.20000       0.00000       0.00000       0.00000       0.00000       0.50000       0.20000       0.53000       0.02800  Winter Wheat
DWHT                   cold_annual          temp_gro       0.00000     120.00000      30.00000       0.40000       4.00000       0.15000       0.01000       0.50000       0.95000       0.80000       1.00000       1.00000       2.00000      15.00000       0.00000       0.02000       0.00570       0.06000       0.02000       0.01000       0.00840       0.00320       0.00190       0.20000       0.03000       0.00600       4.00000       0.75000       7.00000     660.00000      45.00000       0.05000       0.00000       0.00000       0.00000       0.00000       0.65000      12.00000       3.00000       0.10000       0.40000       0.20000       0.00000       0.00000       0.00000       0.00000       0.50000       0.20000       0.53000       0.02800  Durum Wheat
RYE                    cold_annual          temp_gro       0.00000      90.00000      35.00000       0.40000       4.00000       0.15000       0.01000       0.50000       0.95000       0.80000       1.00000       1.00000       1.80000      12.50000       0.00000       0.02000       0.00420       0.06000       0.02000       0.01000       0.00840       0.00320       0.00190       0.20000       0.03000       0.01000       4.00000       0.75000       7.00000     660.00000      45.00000       0.05000       0.00000       0.00000       0.00000       0.00000       0.65000      12.00000       3.00000       0.10000       0.40000       0.20000       0.00000       0.00000       0.00000       0.00000       0.50000       0.20000       0.50000       0.07000  Rye
BARL                   cold_annual          temp_gro       0.00000     105.00000      35.00000       0.54000       4.00000       0.15000       0.01000       0.45000       0.95000       0.60000       1.00000       1.20000       1.30000      25.00000       0.00000       0.02000       0.00170       0.05000       0.02000       0.01000       0.00570       0.00220       0.00130       0.20000       0.01000       0.00800       4.00000       0.75000       7.00000     660.00000      45.00000       0.05000       0.00000       0.00000       0.00000       0.00000       0.65000      12.00000       3.00000       0.10000       0.40000       0.20000       0.00000       0.00000       0.00000       0.00000       0.50000       0.20000       0.53000       0.02800  Spring Barley
OATS                   cold_annual          temp_gro       0.00000     120.00000      35.00000       0.42000       4.00000       0.15000       0.02000       0.50000       0.95000       0.80000       1.00000       1.50000       2.00000      15.00000       0.00000       0.03000       0.00570       0.06000       0.02000       0.01000       0.00840       0.00320       0.00190       0.17000       0.03000       0.00500       4.00000       0.75000      10.00000     660.00000      45.00000       0.05000       0.00000       0.00000       0.00000       0.00000       0.45000      12.00000       3.00000       0.10000       0.40000       0.20000       0.00000       0.00000       0.00000       0.00000       0.50000       0.20000       0.50000       0.02800  Oats
RICE                   warm_annual          temp_gro       0.00000     180.00000      22.00000       0.50000       5.00000       0.30000       0.01000       0.70000       0.95000       0.80000       0.50000       0.80000       0.90000      25.00000      10.00000       0.01000       0.00130       0.05000       0.02000       0.01000       0.00600       0.00300       0.00180       0.25000       0.03000       0.00800       4.00000       0.75000       5.00000     660.00000      31.00000       0.05000       0.00000       0.00000       0.00000       0.00000       0.35000      12.00000       3.00000       0.10000       0.40000       0.20000       0.00000       0.00000       0.00000       0.00000       0.50000       1.00000       0.53000       0.02800  Rice
PMIL                   warm_annual          temp_gro       0.00000     110.00000      35.00000       0.25000       2.50000       0.15000       0.01000       0.50000       0.95000       0.85000       1.00000       3.00000       2.00000      30.00000      10.00000       0.02000       0.00280       0.04000       0.03000       0.01000       0.00600       0.00220       0.00120       0.10000       0.20000       0.01000       4.00000       0.75000       8.00000     660.00000      40.00000       0.05000       0.00000       0.00000       0.00000       0.00000       0.65000      12.00000       3.00000       0.10000       0.40000       0.20000       0.00000       0.00000       0.00000       0.00000       0.50000       0.20000       0.53000       0.02800  Pearl Millet
TIMO                     perennial          temp_gro       0.00000       0.00000      35.00000       0.90000       4.00000       0.15000       0.01000       0.50000       0.95000       0.85000       1.00000       0.80000       2.00000      25.00000       8.00000       0.02000       0.00330       0.03000       0.01000       0.01000       0.00380       0.00250       0.00190       0.90000       0.00300       0.00500       4.00000       0.75000       8.00000     660.00000      45.00000       0.05000       0.00000       0.30000       2.00000       0.00000       0.65000      12.00000       3.00000       0.10000       0.40000       0.20000       0.00000       0.00000       0.00000       0.00000       0.50000       0.20000       0.50000       0.07000  Timothy
BROS                     perennial          temp_gro       0.00000       0.00000      35.00000       0.90000       5.00000       0.15000       0.01000       0.50000       0.95000       0.85000       1.00000       1.20000       2.00000      25.00000       8.00000       0.02000       0.00330       0.04000       0.02000       0.01000       0.00280       0.00170       0.00110       0.90000       0.00300       0.00300       4.00000       0.75000       8.00000     660.00000      45.00000       0.05000       0.00000       0.30000       2.00000       0.00000       0.65000      12.00000       3.00000       0.10000       0.40000       0.20000       0.00000       0.00000       0.00000       0.00000       0.50000       0.20000       0.50000       0.07000  Smooth Bromegrass
BROM                     perennial          temp_gro       0.00000       0.00000      35.00000       0.90000       3.00000       0.45000       0.02000       0.80000       0.95000       0.85000       1.00000       0.80000       1.30000      25.00000       6.00000       0.02000       0.00330       0.04000       0.02000       0.01000       0.00280       0.00170       0.00110       0.90000       0.00300       0.00500       4.00000       0.75000       8.00000     660.00000      45.00000       0.05000       0.00000       0.30000       2.00000       0.00000       0.65000      12.00000       3.00000       0.10000       0.40000       0.20000       0.00000       0.00000       0.00000       0.00000       0.50000       0.20000       0.50000       0.07000  Meadow Bromegrass