aqu_catunit.ele: written by SWAT+ editor v2.2.0 on 2023-03-22 04:25 for SWAT+ rev.60.5.4
      id  name                   obj_typ  obj_typ_no      bsn_frac      sub_frac      reg_frac  
       1  aqu011                     aqu           1       0.00241       0.00000       0.00000  
       2  aqu012                     aqu           2       0.10460       0.00000       0.00000  
       3  aqu021                     aqu           3       0.01290       0.00000       0.00000  
       4  aqu022                     aqu           4       0.24834       0.00000       0.00000  
       5  aqu031                     aqu           5       0.00217       0.00000       0.00000  
       6  aqu032                     aqu           6       0.09420       0.00000       0.00000  
       7  aqu041                     aqu           7       0.00207       0.00000       0.00000  
       8  aqu042                     aqu           8       0.09964       0.00000       0.00000  
       9  aqu051                     aqu           9       0.00192       0.00000       0.00000  
      10  aqu052                     aqu          10       0.04738       0.00000       0.00000  
      11  aqu061                     aqu          11       0.00283       0.00000       0.00000  
      12  aqu062                     aqu          12       0.08540       0.00000       0.00000  
      13  aqu071                     aqu          13       0.00159       0.00000       0.00000  
      14  aqu072                     aqu          14       0.07545       0.00000       0.00000  
      15  aqu081                     aqu          15       0.00550       0.00000       0.00000  
      16  aqu082                     aqu          16       0.10331       0.00000       0.00000  
      17  aqu091                     aqu          17       0.00151       0.00000       0.00000  
      18  aqu092                     aqu          18       0.07040       0.00000       0.00000  
      19  aqu101                     aqu          19       0.00444       0.00000       0.00000  
      20  aqu102                     aqu          20       0.03396       0.00000       0.00000  
      21  aqu_deep010                aqu          21       1.00000       0.00000       0.00000  
