field.fld: written by SWAT+ editor v2.2.0 on 2023-03-22 04:25 for SWAT+ rev.60.5.4
name                       len            wd           ang  
fld011               500.00000     100.00000      30.00000  
fld012               500.00000     100.00000      30.00000  
fld031               500.00000     100.00000      30.00000  
fld032               500.00000     100.00000      30.00000  
fld041               500.00000     100.00000      30.00000  
fld042               500.00000     100.00000      30.00000  
fld051               500.00000     100.00000      30.00000  
fld052               500.00000     100.00000      30.00000  
fld061               500.00000     100.00000      30.00000  
fld062               500.00000     100.00000      30.00000  
fld081               500.00000     100.00000      30.00000  
fld082               500.00000     100.00000      30.00000  
fld091               500.00000     100.00000      30.00000  
fld092               500.00000     100.00000      30.00000  
fld121               500.00000     100.00000      30.00000  
fld122               500.00000     100.00000      30.00000  
fld131               500.00000     100.00000      30.00000  
fld132               500.00000     100.00000      30.00000  
fld151               500.00000     100.00000      30.00000  
fld152               500.00000     100.00000      30.00000  
fld161               500.00000     100.00000      30.00000  
fld162               500.00000     100.00000      30.00000  
fld191               500.00000     100.00000      30.00000  
fld192               500.00000     100.00000      30.00000  
fld201               500.00000     100.00000      30.00000  
fld202               500.00000     100.00000      30.00000  
fld231               500.00000     100.00000      30.00000  
fld232               500.00000     100.00000      30.00000  
fld241               500.00000     100.00000      30.00000  
fld242               500.00000     100.00000      30.00000  
fld251               500.00000     100.00000      30.00000  
fld252               500.00000     100.00000      30.00000  
fld261               500.00000     100.00000      30.00000  
fld262               500.00000     100.00000      30.00000  
fld271               500.00000     100.00000      30.00000  
fld272               500.00000     100.00000      30.00000  
fld291               500.00000     100.00000      30.00000  
fld292               500.00000     100.00000      30.00000  
fld301               500.00000     100.00000      30.00000  
fld302               500.00000     100.00000      30.00000  
fld311               500.00000     100.00000      30.00000  
fld312               500.00000     100.00000      30.00000  
fld321               500.00000     100.00000      30.00000  
fld322               500.00000     100.00000      30.00000  
fld331               500.00000     100.00000      30.00000  
fld332               500.00000     100.00000      30.00000  
fld351               500.00000     100.00000      30.00000  
fld352               500.00000     100.00000      30.00000  
fld361               500.00000     100.00000      30.00000  
fld362               500.00000     100.00000      30.00000  
fld371               500.00000     100.00000      30.00000  
fld372               500.00000     100.00000      30.00000  
fld381               500.00000     100.00000      30.00000  
fld382               500.00000     100.00000      30.00000  
fld401               500.00000     100.00000      30.00000  
fld402               500.00000     100.00000      30.00000  
fld411               500.00000     100.00000      30.00000  
fld412               500.00000     100.00000      30.00000  
fld421               500.00000     100.00000      30.00000  
fld422               500.00000     100.00000      30.00000  
fld431               500.00000     100.00000      30.00000  
fld432               500.00000     100.00000      30.00000  
fld441               500.00000     100.00000      30.00000  
fld442               500.00000     100.00000      30.00000  
fld451               500.00000     100.00000      30.00000  
fld452               500.00000     100.00000      30.00000  
fld461               500.00000     100.00000      30.00000  
fld462               500.00000     100.00000      30.00000  
fld471               500.00000     100.00000      30.00000  
fld472               500.00000     100.00000      30.00000  
fld481               500.00000     100.00000      30.00000  
fld482               500.00000     100.00000      30.00000  
fld511               500.00000     100.00000      30.00000  
fld512               500.00000     100.00000      30.00000  
fld521               500.00000     100.00000      30.00000  
fld522               500.00000     100.00000      30.00000  
fld551               500.00000     100.00000      30.00000  
fld552               500.00000     100.00000      30.00000  
fld571               500.00000     100.00000      30.00000  
fld572               500.00000     100.00000      30.00000  
fld601               500.00000     100.00000      30.00000  
fld602               500.00000     100.00000      30.00000  
fld611               500.00000     100.00000      30.00000  
fld612               500.00000     100.00000      30.00000  
fld631               500.00000     100.00000      30.00000  
fld632               500.00000     100.00000      30.00000  
fld641               500.00000     100.00000      30.00000  
fld642               500.00000     100.00000      30.00000  
fld651               500.00000     100.00000      30.00000  
fld652               500.00000     100.00000      30.00000  
fld681               500.00000     100.00000      30.00000  
fld682               500.00000     100.00000      30.00000  
fld711               500.00000     100.00000      30.00000  
fld712               500.00000     100.00000      30.00000  
fld721               500.00000     100.00000      30.00000  
fld722               500.00000     100.00000      30.00000  
fld731               500.00000     100.00000      30.00000  
fld732               500.00000     100.00000      30.00000  
fld761               500.00000     100.00000      30.00000  
fld762               500.00000     100.00000      30.00000  
fld801               500.00000     100.00000      30.00000  
fld802               500.00000     100.00000      30.00000  
fld821               500.00000     100.00000      30.00000  
fld822               500.00000     100.00000      30.00000  
fld831               500.00000     100.00000      30.00000  
fld832               500.00000     100.00000      30.00000  
fld861               500.00000     100.00000      30.00000  
fld862               500.00000     100.00000      30.00000  
fld871               500.00000     100.00000      30.00000  
fld872               500.00000     100.00000      30.00000  
fld881               500.00000     100.00000      30.00000  
fld882               500.00000     100.00000      30.00000  
fld901               500.00000     100.00000      30.00000  
fld902               500.00000     100.00000      30.00000  
