grassedww.str: written by SWAT+ editor v2.2.0 on 2023-03-22 04:25 for SWAT+ rev.60.5.4
name                  flag          mann        sed_co            dp            wd           len           slp  description
grwway_high              0       0.05000       0.02000       1.00000       4.00000       0.50000       0.10000  Slope_>8
grwway_med               0       0.05000       0.02000       0.75000       3.00000       0.75000       0.03500  Slope_2-5
grwway_low               0       0.05000       0.02000       0.50000       2.00000       1.00000       0.01000  Slope_0-2
