hydrology.hyd: written by SWAT+ editor v2.2.0 on 2023-03-22 04:25 for SWAT+ rev.60.5.4
name                 lat_ttime       lat_sed       can_max          esco          epco   orgn_enrich   orgp_enrich       cn3_swf       bio_mix         perco      lat_orgn      lat_orgp      harg_pet       latq_co  
hyd0001                0.00000       0.00000       1.00000       0.95000       0.50000       0.00000       0.00000       0.95000       0.20000       0.90000       0.00000       0.00000       0.00000       0.01000  
