lum.dtl: written by SWAT+ editor v2.2.0 on 2023-03-22 04:25 for SWAT+ rev.60.5.4
53

 NAME   	 CONDS	ALTS	ACTS
 plow		  2       2      2  
 VAR		OBJ	OB_NUM	LIM_VAR		LIM_OP	   LIM_CONST	 ALT1	 ALT2	 
 phu_base0   hru    0     null          -       0.05000  	   	>  		-		
 days_harv   hru    0     null          -       1.00000  	    -     	=	
 ACT_TYP    OBJ OBJ_NUM   NAME       OPTION       CONST         CONST2      FP     OUTCOMES
 till        hru    0  fieldcultivat  fldcult    0.00000       1.00000     null  	y	n
 till        hru    0   chisel_plow  chisplow    0.00000       1.00000     null  	n	y

 NAME   	 CONDS	ALTS	ACTS
 weir60r       1          1            1
 VAR         OBJ        OB_NUM         LIM_VAR            LIM_OP     LIM_CONST       ALT1	 ALT2
 prob_unif   1.0         120             null                -          130            =             
 ACT_TYP     OBJ         OB_NUM           NAME             OPTION        CONST         CONST2 FILE_POINTER  OUT1  OUT2
 weir_height hru         0               paddy              wet          60.            1        weir1      y          

 NAME   	 CONDS	ALTS	ACTS
 weir60rr      1          1            1
 VAR         OBJ        OB_NUM         LIM_VAR            LIM_OP     LIM_CONST       ALT1	 ALT2
 prob_unif   1.0         130             null                -          140            =             
 ACT_TYP     OBJ         OB_NUM           NAME             OPTION        CONST         CONST2 FILE_POINTER  OUT1  OUT2
 weir_height hru         0               paddy              wet          60.            1        weir1      y          

 NAME   	 CONDS	ALTS	ACTS
 weir0       1          1            1
 VAR         OBJ        OB_NUM         LIM_VAR            LIM_OP     LIM_CONST       ALT1	 ALT2
 prob_unif   1.0         270             null                -          280            =             
 ACT_TYP     OBJ         OB_NUM           NAME             OPTION        CONST         CONST2 FILE_POINTER  OUT1  OUT2
 weir_height hru         0               paddy              wet            0.            1        weir1      y          

 NAME   	CONDS	ALTS	ACTS
 fert_paddy	  2	 	  2	 	  3
 VAR		OBJ	OB_NUM	LIM_VAR		LIM_OP	LIM_CONST		ALT1	 ALT2  ALT3
 phu_base0 	hru	  0	     null		  -	    	0.01	 	  >	     -
 phu_plant 	hru	  0	     null		  -	    	0.5 	      -	     >
 ACT_TYP    OBJ OBJ_NUM   NAME                OPTION        CONST         CONST2      FP         	OUTCOMES
 fertilize	hru	  0	      ammonia_spring	  elem_n	    100.          1   	      inject      	  y      n           
 fertilize	hru	  0	      ammonia_spring	  elem_p	     20.          1   	      inject      	  y      n           
 fertilize	hru	  0	      side_dress	      elem_n        36.	          1           aerial_solid	  n	     y       

 NAME   	CONDS	ALTS	ACTS
 fert_pad_r	  3	 	  2	 	  3
 VAR		OBJ	OB_NUM	LIM_VAR		LIM_OP	LIM_CONST		ALT1	 ALT2   
 prob_unif  1.0     70   null         -         80            =       -     
 weirh      hru   0       -       	  -         0             =       >     
 phu_plant 	hru	  0	     null		  -	    	0.1 	      -	      >
 ACT_TYP    OBJ OBJ_NUM   NAME                OPTION        CONST         CONST2      FP         	OUTCOMES
 fertilize	hru	  0	      side_dress	  	  org_compost    5700         1   	      inject      	  y      n      n    
 fertilize	hru	  0	      side_dress	  	  elem_n	     52.          1   	      inject      	  n      y      n    
 fertilize	hru	  0	      side_dress	  	  elem_p	     8.8          1   	      inject      	  n      y      n    

 NAME   	CONDS	ALTS	ACTS
 fert_pad_rr  3	 	  3	 	  4
 VAR		OBJ	OB_NUM	LIM_VAR		LIM_OP	LIM_CONST		ALT1	 ALT2  ALT3
 phu_base0 	hru	  0	     null		  -	    	0.01	 	  >	     -      -
 phu_plant 	hru	  0	     null		  -	    	0.22 	      <	     >      -
 phu_plant 	hru	  0	     null		  -	    	0.5 	      -	     <      >
 ACT_TYP    OBJ OBJ_NUM   NAME                OPTION        CONST         CONST2      FP         	OUTCOMES
 fertilize	hru	  0	      preplanting	  	  elem_n	    100.          1   	      inject      	  y      n      n    
 fertilize	hru	  0	      preplanting	  	  elem_p	     20.          1   	      inject      	  y      n      n    
 fertilize	hru	  0	      side_dress	      elem_n         20.	      1           aerial_solid	  n	     y      n
 fertilize	hru	  0	      side_dress	      elem_n         20.	      1           aerial_solid	  n	     n      y

 NAME   	CONDS	ALTS	ACTS
 pad_irr_r  4	 	2	 	2
 VAR		OBJ	 OB_NUM	 LIM_VAR	LIM_OP	   LIM_CONST	 ALT1	ALT2
 weirh      hru    0       -       	  -         0            >       -     
 wet_depth 	hru	   0     hwater		  -	        60.		     <       -
 month      null   0      null      -           5            >=      -    
 month      null   0      null      -           9            -       >   
 ACT_TYP     OBJ  OB_NUM   NAME                OPTION        CONST         CONST2      FP       OUTCOMES
 irrigate  null	   0	  ponding             ponding90        60.           50.     	  null	   y 	n
 irrigate  null	   0	  ponding             ponding_off       0.            0.     	  null	   n 	y

 NAME   	CONDS	ALTS	ACTS
 pad_irr_rr  4	 	2	 	2
 VAR		OBJ	 OB_NUM	 LIM_VAR	LIM_OP	   LIM_CONST	 ALT1	ALT2
 weirh      hru    0       -       	  -         0            >       -     
 wet_depth 	hru	   0     hwater		  -	        60.		     <       -
 month      null   0      null      -           5            >=      -    
 month      null   0      null      -           10           -       >   
 ACT_TYP     OBJ  OB_NUM   NAME                OPTION        CONST         CONST2      FP       OUTCOMES
 irrigate   sdc	   0	  ponding             ponding90        60.           50.     	  null	   y 	n
 irrigate   sdc	   0	  ponding             ponding_off       0.            0.     	  null	   n 	y
    
 NAME   	CONDS	ALTS	ACTS
 puddle 	  4	 	1	 	1
 VAR		OBJ	OB_NUM	LIM_VAR		LIM_OP	   LIM_CONST	 ALT1
 month      null   0       -          -         4             >        
 weirh      hru    0       -       	  -         0.            >      
 wet_depth 	hru	   0     hwater		  -	        0.		      >
 precip_cur	hru	   0      -		      -	        10		      <
 ACT_TYP    OBJ OBJ_NUM   NAME                OPTION        CONST         CONST2      FP       OUTCOMES
 puddle 	hru	  0	      puddle	          med_eff         100          1      	  null	   y

 NAME   	CONDS	ALTS	ACTS
 pl_hv_rice	  3	      2	      2
 VAR		OBJ	OB_NUM	LIM_VAR		LIM_OP	LIM_CONST		  ALT1   ALT2   
 weirh      hru   0       -       	  -     0.            		 >      -      
 phu_base0 	hru	  0	    null		  -	    0.15		 	     >	    -
 phu_plant 	hru	  0	    phu_mat		  -	    1.15		 	     -      >
 ACT_TYP    OBJ OBJ_NUM   NAME                OPTION        CONST         CONST2      FP         OUTCOMES
 plant		hru	  0	    rice140	         	 rice140          0             1      tr_rice140	 y	    n
 harvest_kill hru  0	grain_harv	     	 all	          0	            1         grain		 n	    y

 NAME   	CONDS	ALTS	ACTS
 pl_rice_ry	  3	      2	      2
 VAR		OBJ	OB_NUM	LIM_VAR		LIM_OP	LIM_CONST		  ALT1   ALT2   
 weirh      hru   0       -       	  -     0.            		 >      =      
 days_harv  hru   0     null          -      15.00000  	         >     	<	
 phu_base0 	hru	  0	    null		  -	    0.3 		 	     >      -
 ACT_TYP    OBJ OBJ_NUM   NAME                OPTION        CONST         CONST2      FP         OUTCOMES
 plant		hru	  0	    rice140	         	 rice140          0             1      tr_rice140	 y	    n
 plant 		hru   0			rye	     	 		 rye          0	            1         null		 n	    y

 NAME   	CONDS	ALTS	ACTS
 hv_rice_ry	  3	      2	      2
 VAR		OBJ	OB_NUM	LIM_VAR		LIM_OP	LIM_CONST		  ALT1   ALT2   
 phu_base0 	hru	  0	    null		  -	    0.8 		 	     >	    <
 days_plant hru   0     null          -     140   	             >     	-	
 prob_unif  1.0   130   null         -      140                  =       -     
ACT_TYP      OBJ OBJ_NUM   NAME                OPTION        CONST         CONST2      FP         OUTCOMES
 harvest_kill hru	  0	    rice140	         	 rice140          0             1      grain     	 y	    n
 harvest_kill hru     0			rye	     	 		 rye          0	            1      hay_cut_low		 n	    y

name                     conds      alts      acts       !plant and harvest for continuous summer crop
pl_hv_summer1                6         5         3  
var                        obj   obj_num           lim_var            lim_op     lim_const      alt1      alt2      alt3      alt4      alt5  
phu_base0                  hru         0              null                 -       0.15000         >         -         -         -         -       !base0 heat units to trigger plant
phu_base0                  hru         0              null                 -       0.30000         -         -         -         -         >       !plant even if soil water is high
phu_plant                  hru         0           phu_mat                 -       1.15000         -         >         -         -         -       !plant hu to trigger harvest
soil_water                 hru         0                fc                 *       2.00000         <         <         -         -         -       !don't schedule if too wet
jday                       hru         0              null                 -     350.00000         -         -         =         -         -       !harvest day even if too wet
year_rot                   hru         0              null                 -       1.00000         -         -         -         >         -       !reset rotation year
act_typ                    obj   obj_num              name            option         const        const2                fp  outcome           
plant                      hru         0             plant              crop       0.00000       1.00000              null  y   n   n   n   y   
harvest_kill               hru         0        grain_harv              crop       0.00000       1.00000             grain  n   y   y   n   n   
rot_reset                  hru         0           reset_1              null       1.00000       1.00000              null  n   n   n   y   n   

name                     conds      alts      acts       !plant and harvest for continuous summer crop
pl_hv_agro                 6         5         3  
var                        obj   obj_num           lim_var            lim_op     lim_const      alt1      alt2      alt3      alt4      alt5  
phu_base0                  hru         0              null                 -       0.15000         >         -         -         -         -       !base0 heat units to trigger plant
phu_base0                  hru         0              null                 -       0.30000         -         -         -         -         >       !plant even if soil water is high
phu_plant                  hru         0           phu_mat                 -       1.15000         -         >         -         -         -       !plant hu to trigger harvest
soil_water                 hru         0                fc                 *       2.00000         <         <         -         -         -       !don't schedule if too wet
jday                       hru         0              null                 -     350.00000         -         -         =         -         -       !harvest day even if too wet
year_rot                   hru         0              null                 -       1.00000         -         -         -         >         -       !reset rotation year
act_typ                    obj   obj_num              name            option         const        const2                fp  outcome           
plant                      hru         0             plant              crop       0.00000       1.00000              null  y   n   n   n   y   
harvest_kill               hru         0        grain_harv              crop       0.00000       1.00000             grain  n   y   y   n   n   
rot_reset                  hru         0           reset_1              null       1.00000       1.00000              null  n   n   n   y   n   

name                     conds      alts      acts       !plant and harvest for 2  year summer crop rotation
pl_hv_summer2                7         9         5  
var                        obj   obj_num           lim_var            lim_op     lim_const      alt1      alt2      alt3      alt4      alt5      alt6      alt7      alt8      alt9  
jday                       hru         0              null                 -     350.00000         -         -         -         -         =         =         -         -         -       !harvest day even if too wet
phu_base0                  hru         0              null                 -       0.15000         >         >         -         -         -         -         -         -         -       !base0 heat units to trigger plant
phu_base0                  hru         0              null                 -       0.30000         -         -         -         -         -         -         -         >         >       !base0 heat units even if too wet
phu_plant                  hru         0           phu_mat                 -       1.15000         -         -         >         >         -         -         -         -         -       !plant hu to trigger harvest
soil_water                 hru         0                fc                 *       2.00000         <         <         <         <         -         -         -         -         -       !don't schedule if too wet
year_rot                   hru         0              null                 -       1.00000         =         -         =         -         =         -         -         =         -       !plant/harv crop 1 in rotation year 1
year_rot                   hru         0              null                 -       2.00000         -         =         -         =         -         =         >         -         =       !plant/harv crop 2 in rotation year 1 and reset
act_typ                    obj   obj_num              name            option         const        const2                fp  outcome           
plant                      hru         0       plant_crop1             crop1       0.00000       0.00000              null  y   n   n   n   n   n   n   y   n   
plant                      hru         0       plant_crop2             crop2       0.00000       0.00000              null  n   y   n   n   n   n   n   n   y   
harvest_kill               hru         0        grain_harv             crop1       0.00000       0.00000              null  n   n   y   n   y   n   n   n   n   
harvest_kill               hru         0        grain_harv             crop2       0.00000       0.00000              null  n   n   n   y   n   y   n   n   n   
rot_reset                  hru         0           reset_2              null       1.00000       1.00000              null  n   n   n   n   n   n   y   n   n   

name                     conds      alts      acts       !plant and harvest for continuous winter crop
pl_hv_winter1                6         4         3  
var                        obj   obj_num           lim_var            lim_op     lim_const      alt1      alt2      alt3      alt4  
jday                       hru         0              null                 -     200.00000         -         -         =         -       !harvest day even if too wet
phu_base0                  hru         0              null                 -       0.85000         >         -         -         -       !base0 heat units to trigger plant
phu_plant                  hru         0           phu_mat                 -       1.15000         -         >         -         -       !plant heat units to trigger harvest
soil_water                 hru         0                fc                 *       2.00000         <         <         -         -       !don't schedule if too wet
year_rot                   hru         0              null                 -       1.00000         -         -         -         >       !reset rotation year
year_rot                   hru         0              null                 -       1.00000         =         =         =         -       !plant/harv crop 1 in rotation year 1
act_typ                    obj   obj_num              name            option         const        const2                fp  outcome           
harvest_kill               hru         0        grain_harv              crop       0.00000       0.00000              null  n   y   y   n   
plant                      hru         0             plant              crop       0.00000       0.00000              null  y   n   n   n   
rot_reset                  hru         0           reset_1              null       1.00000       1.00000              null  n   n   n   y   

name                     conds      alts      acts       !corn-corn-soybean-winter wheat-soybean rotation
pl_hv_ccsws                 10        10         7  
var                        obj   obj_num           lim_var            lim_op     lim_const      alt1      alt2      alt3      alt4      alt5      alt6      alt7      alt8      alt9     alt10  
days_harv                  hru         0              null                 -       7.00000         -         -         =         =         -         -         -         -         -         -       !plant wwht and soyb 7 days after harvest
jday                       hru         0              null                 -     150.00000         -         -         -         -         -         -         -         -         -         =       !harv wwht on day 150 even if too wet
jday                       hru         0              null                 -     350.00000         -         -         -         -         -         -         -         =         =         -       !harv corn and soyb on day 350 even if too wet
phu_base0                  hru         0              null                 -       0.15000         >         >         -         -         -         -         -         -         -         -       !base0 heat units to plant corn and soyb
phu_plant                  hru         0           phu_mat                 -       1.15000         -         -         -         -         >         >         >         -         -         -       !plant heat units to harv corn and soyb
soil_water                 hru         0                fc                 *       2.00000         <         <         -         <         <         <         <         -         -         -       !don't schedule if too wet
year_rot                   hru         0              null                 -       4.00000         -         -         =         -         -         -         =         -         -         =       !rotation year 4 - harv wwht and plant/harv soyb
year_rot                   hru         0              null                 -       3.00000         -         =         -         =         -         -         -         -         -         -       !rotation year 3 - plant/harv soyb - plant wwht
year_rot                   hru         0              null                 -       2.00000         -         -         -         -         -         >         -         -         >         -       !rotation year > 2 (3 and 4) - harv soyb
year_rot                   hru         0              null                 -       3.00000         <         -         -         -         <         -         -         <         -         -       !rotation year < 3 (1 and 2) - plant/harv corn
act_typ                    obj   obj_num              name            option         const        const2                fp  outcome           
harvest_kill               hru         0        grain_harv              wwht       0.00000       0.00000              null  n   n   n   n   n   n   y   n   n   y   
harvest_kill               hru         0        grain_harv              soyb       0.00000       0.00000              null  n   n   n   n   n   y   n   n   y   n   
harvest_kill               hru         0        grain_harv              corn       0.00000       0.00000              null  n   n   n   n   y   n   n   y   n   n   
plant                      hru         0        plant_wwht              wwht       0.00000       0.00000              null  n   n   n   y   n   n   n   n   n   n   
plant                      hru         0        plant_soyb              soyb       0.00000       0.00000              null  n   y   y   n   n   n   n   n   n   n   
plant                      hru         0        plant_corn              corn       0.00000       0.00000              null  y   n   n   n   n   n   n   n   n   n   
rot_reset                  hru         0           reset_4              null       1.00000       1.00000              null  n   n   n   n   n   n   n   n   n   n   

name                     conds      alts      acts       !irrigate 25 mm when soil water is below 0.5*field capacity from unlimited source - max 20 times per year using sprinkler
irr_opt_sw_unlim             2         1         1  
var                        obj   obj_num           lim_var            lim_op     lim_const      alt1  
soil_water                 hru         0                fc                 -       0.50000         <       !irrigate when soil water is below this fraction of field capacity
plant_gro                  hru         0                 y                 -       0.00000         =       !only when plant is growing
act_typ                    obj   obj_num              name            option         const        const2                fp  outcome           
irr_demand                 hru         0         sprinkler     sprinkler_ilm      25.00000      20.00000             unlim  y   

name                     conds      alts      acts       !irrigate 25 mm when soil water is below 0.35*field capacity from unlimited source - max 20 times per year using sprinkler
irr_reduc_sw_unlim           2         1         1  
var                        obj   obj_num           lim_var            lim_op     lim_const      alt1  
soil_water                 hru         0                fc                 -       0.35000         <       !irrigate when soil water is below this fraction of field capacity
plant_gro                  hru         0                 y                 -       0.00000         =       !only when plant is growing
act_typ                    obj   obj_num              name            option         const        const2                fp  outcome           
irr_demand                 hru         0         sprinkler     sprinkler_ilm      25.00000      20.00000             unlim  y   

name                     conds      alts      acts       !irrigate 25 mm when plant water stress < 0.9 from unlimited source - max 20 times per year using sprinkler
irr_str9_unlim               1         1         1  
var                        obj   obj_num           lim_var            lim_op     lim_const      alt1  
w_stress                   hru         0              null                 -       0.90000         <       !irrigate when plant water stress is less than this value
act_typ                    obj   obj_num              name            option         const        const2                fp  outcome           
irr_demand                 hru         0         sprinkler     sprinkler_ilm      25.00000      20.00000             unlim  y   

name                     conds      alts      acts       !irrigate 25 mm when plant water stress < 0.8 from unlimited source - max 20 times per year using sprinkler
irr_str8_unlim               1         1         1  
var                        obj   obj_num           lim_var            lim_op     lim_const      alt1  
w_stress                   hru         0              null                 -       0.80000         <       !irrigate when plant water stress is less than this value
act_typ                    obj   obj_num              name            option         const        const2                fp  outcome           
irr_demand                 hru         0         sprinkler     sprinkler_ilm      25.00000      20.00000             unlim  y   

name                     conds      alts      acts       !irrigate 25 mm when plant water stress < 0.8 from aquifer 1 - max 20 times per year using sprinkler
irr_str8_aqu                 1         1         1  
var                        obj   obj_num           lim_var            lim_op     lim_const      alt1  
w_stress                   hru         0              null                 -       0.80000         <       !irrigate when plant water stress is less than this value
act_typ                    obj   obj_num              name            option         const        const2                fp  outcome           
irrigate                   aqu         1         sprinkler     sprinkler_ilm      25.00000      20.00000              null  y   

name                     conds      alts      acts       !irrigate 25 mm when plant water stress < 0.8 from reservoir 1 - max 20 times per year using sprinkler
irr_str8_res                 1         1         1  
var                        obj   obj_num           lim_var            lim_op     lim_const      alt1  
w_stress                   hru         0              null                 -       0.80000         <       !irrigate when plant water stress is less than this value
act_typ                    obj   obj_num              name            option         const        const2                fp  outcome           
irrigate                   res         1         sprinkler     sprinkler_ilm      25.00000      20.00000              null  y   

name                     conds      alts      acts       !irrigate 25 mm when plant water stress < 0.8 from channel 1 - max 20 times per year using sprinkler
irr_str8_cha                 1         1         1  
var                        obj   obj_num           lim_var            lim_op     lim_const      alt1  
w_stress                   hru         0              null                 -       0.80000         <       !irrigate when plant water stress is less than this value
act_typ                    obj   obj_num              name            option         const        const2                fp  outcome           
irrigate                   cha         1         sprinkler     sprinkler_ilm      25.00000      20.00000              null  y   

name                     conds      alts      acts       !when there is plant water stress, irrigate from a reservoir with an aquifer backup
irr_str8_res_aqu             3         2         2  
var                        obj   obj_num           lim_var            lim_op     lim_const      alt1      alt2  
w_stress                   hru         0              null                 -       0.80000         <         <       !water stress < this value
vol                        res         1              pvol                 *       0.75000         >         <       !reservoir volume > this fraction of principle volume
aqu_dep                    aqu         1              null                 -      50.00000         -         <       !aquifer depth < this many meters below surface
act_typ                    obj   obj_num              name            option         const        const2                fp  outcome           
irrigate                   res         1         sprinkler     sprinkler_ilm      25.00000      20.00000              null  y   n   
irrigate                   aqu         1         sprinkler     sprinkler_ilm      25.00000      20.00000              null  n   y   

name                     conds      alts      acts       !open drains in spring and close after harvest - close in summer if low soil water and plant hu > 0.5
control_drainage             6         4         4  
var                        obj   obj_num           lim_var            lim_op     lim_const      alt1      alt2      alt3      alt4  
jday                       hru         0              null                 -      65.00000         =         -         -         -       !open drains on day 65
days_harv                  hru         0              null                 -      14.00000         -         >         -         -       !close drains 14 days after harvest
jday                       hru         0              null                 -     295.00000         -         >         -         -       !close drains on day 295
phu_plant                  hru         0              null                 -       0.50000         -         -         >         -       !plant heaat units > 0.5 - check for summer closing
soil_water                 hru         0                fc                 *       0.50000         -         -         <         -       !sw < 0.5*fc - check for summer closing
phu_plant                  hru         0              null                 -       1.00000         -         -         -         >       !open when plant heat units > 1.0
act_typ                    obj   obj_num              name            option         const        const2                fp  outcome           
drain_control              hru         0       open_spring              null       1.00000       1.00000              null  y   n   n   n   
drain_control              hru         0        close_fall              null       0.00000       1.00000              null  n   y   n   n   
drain_control              hru         0      close_summer              null       0.00000       1.00000              null  n   n   y   n   
drain_control              hru         0       open_summer              null       1.00000       1.00000              null  n   n   n   y   

name                     conds      alts      acts       !hay cutting (biomass harv) when plant heat units > 0.5 - soil is below 2*fc - and biomass is > 3000 kg/ha - max 3 cuttings per year