parameters.bsn: written by SWAT+ editor v2.2.0 on 2023-03-22 04:25 for SWAT+ rev.60.5.4
  lai_noevap       sw_init      surq_lag      adj_pkrt  adj_pkrt_sed       lin_sed       exp_sed      orgn_min      n_uptake      p_uptake        n_perc        p_perc        p_soil       p_avail    rsd_decomp     pest_perc       msk_co1       msk_co2         msk_x  nperco_lchtile      evap_adj         scoef     denit_exp    denit_frac      man_bact      adj_uhyd       cn_froz       dorm_hr         plaps         tlaps     n_fix_max     rsd_decay     rsd_cover  urb_init_abst    petco_pmpt    uhyd_alpha        splash          rill      surq_exp       cov_mgt       cha_d50           co2   day_lag_max      igen  
     3.00000       0.00000       1.00000       1.00000       1.00000       0.00000       1.00000       0.00000      20.00000      20.00000       0.10000      10.00000     175.00000       0.40000       0.05000       0.50000       0.75000       0.25000       0.20000       0.50000       0.60000       1.00000       1.40000       1.30000       0.15000       0.00000       0.00000       0.00000       0.00000       0.00000      20.00000       0.01000       0.30000       1.00000       1.00000       5.00000       1.00000       0.70000       1.20000       0.03000      50.00000       1.57000       0.00000         0  
