rout_unit.con: written by SWAT+ editor v2.2.0 on 2023-03-22 04:25 for SWAT+ rev.60.5.4
      id  name                gis_id          area           lat           lon          elev       rtu               wst       cst      ovfl      rule   out_tot       obj_typ    obj_id       hyd_typ          frac  
       1  rtu001                   1       10.0000      35.52014     127.32787     113.51276         1    s35610n127290e         0         0         0         2           sdc         1           tot       1.00000           aqu         1           rhg       1.00000  
