rout_unit.rtu: written by SWAT+ editor v2.2.0 on 2023-03-22 04:25 for SWAT+ rev.60.5.4
      id              name            define               dlr              topo             field  
       1            rtu01             rtu001              null        toportu011            fld011  
