soil_plant.ini: written by SWAT+ editor v2.2.0 on 2023-03-22 04:25 for SWAT+ rev.60.5.4
name                   sw_frac         nutrients              pest              path              hmet              salt  
soilplant1             0.00000          soilnut1              null              null              null              null  
