tmp.cli: Temperature file names - file written by SWAT+ editor 2023-03-22 04:22:29.141050
filename
Imsiltmp.tmp
