weather-wgn.cli: written by SWAT+ editor v2.2.0 on 2023-03-22 04:25 for SWAT+ rev.60.5.4
Imsil                          35.61000     127.29000     247.90000        30  
 tmp_max_ave   tmp_min_ave    tmp_max_sd    tmp_min_sd       pcp_ave        pcp_sd      pcp_skew       wet_dry       wet_wet      pcp_days       pcp_hhr       slr_ave       dew_ave       wnd_ave  
     3.79032      -8.02376       4.11179       4.74641       0.92032       2.93256       6.86696       0.15699       0.13441       9.16667       3.95000       8.59081       0.73338       1.20828  
     6.47005      -6.23196       4.77768       4.55777       1.30401       4.37935       5.96028       0.14151       0.12264       7.43333       8.00000      11.54907       0.68496       1.42017  
    12.06925      -1.98419       4.94817       3.89865       1.73656       4.81061       4.12544       0.16022       0.12581       8.73333      28.60000      14.83524       0.65716       1.62280  
    18.69189       3.22911       4.64496       4.54927       2.78711       8.12208       4.84726       0.15444       0.13778       8.83333      17.80000      17.85318       0.63253       1.67689  
    23.73839       9.28720       3.77223       3.77404       2.76957       8.15209       4.65805       0.15484       0.13333       8.76667      34.60000      19.48515       0.66639       1.51925  
    27.08722      15.53800       3.06467       3.00114       4.74678      12.93307       4.01722       0.15556       0.18889      10.90000      35.65000      17.26224       0.72792       1.29822  
    29.13634      20.46892       3.30185       2.24756      10.06559      21.19728       3.16385       0.17204       0.35591      16.03333      57.05000      15.14880       0.79296       1.34086  
    29.81710      20.39151       3.30975       2.40710      10.06796      24.63648       4.49166       0.16774       0.32581      15.33333      44.75000      15.38657       0.78735       1.19430  
    26.02922      14.34822       3.19475       3.99773       4.61089      14.60450       5.16527       0.14889       0.16444       9.13333      35.15000      14.50308       0.76843       1.02756  
    20.56785       6.15925       3.75575       4.22640       1.87312       7.22101       6.48393       0.11398       0.08710       6.43333      29.10000      13.15526       0.74368       1.03151  
    13.39000      -0.11367       4.67858       4.44611       1.69000       5.34302       5.39073       0.16556       0.11333       8.26667      13.80000       9.52828       0.73467       1.15589  
     6.03194      -5.90065       4.57888       4.14020       1.07333       3.13052       5.21266       0.15591       0.15161       9.56667       5.05000       7.79345       0.74170       1.14645  
