rout_unit.ele: written by SWAT+ editor v2.2.0 on 2023-03-22 04:25 for SWAT+ rev.60.5.4
      id  name                   obj_typ    obj_id          frac               dlr
       1  hru0001                    hru         1            1                 0
