snow.sno: written by SWAT+ editor v2.3.3 on 2023-10-25 08:58 for SWAT+ rev.60.5.7
name                  fall_tmp      melt_tmp      melt_max      melt_min       tmp_lag      snow_h2o         cov50     snow_init  
snow001                1.00000       0.50000       4.50000       4.50000       1.00000       1.00000       0.50000       0.00000  
