chandeg.con: written by SWAT+ editor v2.2.0 on 2023-03-22 04:25 for SWAT+ rev.60.5.4
      id  name                gis_id          area           lat           lon          elev      lcha               wst       cst      ovfl      rule   out_tot       obj_typ    obj_id       hyd_typ          frac
       1  cha01                    1       10.40000      35.52632     127.32895             0         1    s35610n127290e         0         0         0         0
