ls_unit.def: written by SWAT+ editor v2.2.0 on 2023-03-22 04:25 for SWAT+ rev.60.5.4
1
      id              name          area  elem_tot  elements
       1            rtu001       10.0000         1      1
