chandeg.con: written by SWAT+ editor v2.3.3 on 2025-03-25 10:57 for SWAT+ rev.60.5.7
      id  name                gis_id          area           lat           lon          elev      lcha               wst       cst      ovfl      rule   out_tot
       1  cha1                     1      16.30590      43.95464     -71.72427             0         1     s43952n71725w         0         0         0         0
