hru.con: written by SWAT+ editor v2.3.3 on 2025-03-25 10:57 for SWAT+ rev.60.5.7
      id  name                gis_id          area           lat           lon          elev       hru               wst       cst      ovfl      rule   out_tot
       1  hru01                    1       0.12570      43.96010     -71.72605     707.62609         1     s43958n71725w         0         0         0         0
       2  hru02                    2       0.15210      43.95999     -71.72647     707.61933         2     s43958n71725w         0         0         0         0
       3  hru03                    3       0.08980      43.95986     -71.72693     707.72717         3     s43958n71725w         0         0         0         0
       4  hru04                    4       0.02080      43.95974     -71.72749     709.17308         4     s43958n71725w         0         0         0         0
       5  hru05                    5       0.00830      43.96016     -71.72679     702.00000         5     s43958n71725w         0         0         0         0
       6  hru06                    6       0.00310      43.96014     -71.72676     702.00000         6     s43958n71725w         0         0         0         0
       7  hru07                    7       0.27960      43.95924     -71.72630     691.90773         7     s43958n71725w         0         0         0         0
       8  hru08                    8       1.52430      43.95774     -71.72563     635.81552         8     s43958n71725w         0         0         0         0
       9  hru09                    9       6.19550      43.95698     -71.72501     601.97953         9     s43958n71725w         0         0         0         0
      10  hru10                   10       7.90700      43.95769     -71.72541     629.55658        10     s43958n71725w         0         0         0         0
