ls_unit.def: written by SWAT+ editor v2.3.3 on 2025-03-25 10:57 for SWAT+ rev.60.5.7
1
      id              name          area  elem_tot  elements
       1             rtu10      16.30620         2         1       -10
