object.cnt: written by SWAT+ editor v2.3.3 on 2025-03-25 10:57 for SWAT+ rev.60.5.7
name                   ls_area      tot_area       obj       hru      lhru       rtu       mfl       aqu       cha       res       rec      exco       dlr       can       pmp       out      lcha     aqu2d       hrd       wro
Hubbard_Brook_Watershed_2      16.30620      16.30620        14        10         0         1         0         2         0         0         0         0         0         0         0         0         1         0         0         0
