aqu_catunit.ele: written by SWAT+ editor v2.3.3 on 2024-08-26 08:41 
      id  name                   obj_typ  obj_typ_no      bsn_frac      sub_frac      reg_frac  
       1  aqu0010                    aqu           1       0.00119       0.00000       0.00000  
       2  aqu0020                    aqu           2       0.00078       0.00000       0.00000  
       3  aqu0030                    aqu           3       0.00154       0.00000       0.00000  
       4  aqu0040                    aqu           4       0.00209       0.00000       0.00000  
       5  aqu0050                    aqu           5       0.00169       0.00000       0.00000  
       6  aqu0060                    aqu           6       0.00088       0.00000       0.00000  
       7  aqu0070                    aqu           7       0.00118       0.00000       0.00000  
       8  aqu0080                    aqu           8       0.00115       0.00000       0.00000  
       9  aqu0090                    aqu           9       0.00597       0.00000       0.00000  
      10  aqu0100                    aqu          10       0.00092       0.00000       0.00000  
      11  aqu0110                    aqu          11       0.00170       0.00000       0.00000  
      12  aqu0120                    aqu          12       0.00058       0.00000       0.00000  
      13  aqu0130                    aqu          13       0.00093       0.00000       0.00000  
      14  aqu0140                    aqu          14       0.00143       0.00000       0.00000  
      15  aqu0150                    aqu          15       0.00198       0.00000       0.00000  
      16  aqu0160                    aqu          16       0.00444       0.00000       0.00000  
      17  aqu0170                    aqu          17       0.00070       0.00000       0.00000  
      18  aqu0180                    aqu          18       0.00157       0.00000       0.00000  
      19  aqu0190                    aqu          19       0.00156       0.00000       0.00000  
      20  aqu0200                    aqu          20       0.00405       0.00000       0.00000  
      21  aqu0210                    aqu          21       0.00200       0.00000       0.00000  
      22  aqu0220                    aqu          22       0.00101       0.00000       0.00000  
      23  aqu0230                    aqu          23       0.00009       0.00000       0.00000  
      24  aqu0240                    aqu          24       0.00103       0.00000       0.00000  
      25  aqu0250                    aqu          25       0.00103       0.00000       0.00000  
      26  aqu0260                    aqu          26       0.00060       0.00000       0.00000  
      27  aqu0270                    aqu          27       0.00073       0.00000       0.00000  
      28  aqu0280                    aqu          28       0.00065       0.00000       0.00000  
      29  aqu0290                    aqu          29       0.00196       0.00000       0.00000  
      30  aqu0300                    aqu          30       0.00080       0.00000       0.00000  
      31  aqu0310                    aqu          31       0.00027       0.00000       0.00000  
      32  aqu0320                    aqu          32       0.00165       0.00000       0.00000  
      33  aqu0330                    aqu          33       0.00072       0.00000       0.00000  
      34  aqu0340                    aqu          34       0.00068       0.00000       0.00000  
      35  aqu0350                    aqu          35       0.00060       0.00000       0.00000  
      36  aqu0360                    aqu          36       0.00138       0.00000       0.00000  
      37  aqu0370                    aqu          37       0.00016       0.00000       0.00000  
      38  aqu0380                    aqu          38       0.00117       0.00000       0.00000  
      39  aqu0390                    aqu          39       0.00231       0.00000       0.00000  
      40  aqu0400                    aqu          40       0.00125       0.00000       0.00000  
      41  aqu0410                    aqu          41       0.00061       0.00000       0.00000  
      42  aqu0420                    aqu          42       0.00322       0.00000       0.00000  
      43  aqu0430                    aqu          43       0.00067       0.00000       0.00000  
      44  aqu0440                    aqu          44       0.00056       0.00000       0.00000  
      45  aqu0450                    aqu          45       0.00227       0.00000       0.00000  
      46  aqu0460                    aqu          46       0.00052       0.00000       0.00000  
      47  aqu0470                    aqu          47       0.00189       0.00000       0.00000  
      48  aqu0480                    aqu          48       0.00087       0.00000       0.00000  
      49  aqu0490                    aqu          49       0.00204       0.00000       0.00000  
      50  aqu0500                    aqu          50       0.00189       0.00000       0.00000  
      51  aqu0510                    aqu          51       0.00135       0.00000       0.00000  
      52  aqu0520                    aqu          52       0.00073       0.00000       0.00000  
      53  aqu0530                    aqu          53       0.00113       0.00000       0.00000  
      54  aqu0540                    aqu          54       0.00142       0.00000       0.00000  
      55  aqu0550                    aqu          55       0.00170       0.00000       0.00000  
      56  aqu0560                    aqu          56       0.00179       0.00000       0.00000  
      57  aqu0570                    aqu          57       0.00170       0.00000       0.00000  
      58  aqu0580                    aqu          58       0.00113       0.00000       0.00000  
      59  aqu0590                    aqu          59       0.00127       0.00000       0.00000  
      60  aqu0600                    aqu          60       0.00104       0.00000       0.00000  
      61  aqu0610                    aqu          61       0.00211       0.00000       0.00000  
      62  aqu0620                    aqu          62       0.00064       0.00000       0.00000  
      63  aqu0630                    aqu          63       0.00116       0.00000       0.00000  
      64  aqu0640                    aqu          64       0.00181       0.00000       0.00000  
      65  aqu0650                    aqu          65       0.00071       0.00000       0.00000  
      66  aqu0660                    aqu          66       0.00160       0.00000       0.00000  
      67  aqu0670                    aqu          67       0.00108       0.00000       0.00000  
      68  aqu0680                    aqu          68       0.00075       0.00000       0.00000  
      69  aqu0690                    aqu          69       0.00094       0.00000       0.00000  
      70  aqu0700                    aqu          70       0.00072       0.00000       0.00000  
      71  aqu0710                    aqu          71       0.00160       0.00000       0.00000  
      72  aqu0720                    aqu          72       0.00032       0.00000       0.00000  
      73  aqu0730                    aqu          73       0.00074       0.00000       0.00000  
      74  aqu0740                    aqu          74       0.00132       0.00000       0.00000  
      75  aqu0750                    aqu          75       0.00081       0.00000       0.00000  
      76  aqu0760                    aqu          76       0.00174       0.00000       0.00000  
      77  aqu0770                    aqu          77       0.00064       0.00000       0.00000  
      78  aqu0780                    aqu          78       0.00016       0.00000       0.00000  
      79  aqu0790                    aqu          79       0.00073       0.00000       0.00000  
      80  aqu0800                    aqu          80       0.00059       0.00000       0.00000  
      81  aqu0810                    aqu          81       0.00065       0.00000       0.00000  
      82  aqu0820                    aqu          82       0.00160       0.00000       0.00000  
      83  aqu0830                    aqu          83       0.00116       0.00000       0.00000  
      84  aqu0840                    aqu          84       0.00064       0.00000       0.00000  
      85  aqu0850                    aqu          85       0.00088       0.00000       0.00000  
      86  aqu0860                    aqu          86       0.00024       0.00000       0.00000  
      87  aqu0870                    aqu          87       0.00262       0.00000       0.00000  
      88  aqu0880                    aqu          88       0.00218       0.00000       0.00000  
      89  aqu0890                    aqu          89       0.00080       0.00000       0.00000  
      90  aqu0900                    aqu          90       0.00111       0.00000       0.00000  
      91  aqu0910                    aqu          91       0.00001       0.00000       0.00000  
      92  aqu0920                    aqu          92       0.00069       0.00000       0.00000  
      93  aqu0930                    aqu          93       0.00038       0.00000       0.00000  
      94  aqu0940                    aqu          94       0.00077       0.00000       0.00000  
      95  aqu0950                    aqu          95       0.00182       0.00000       0.00000  
      96  aqu0960                    aqu          96       0.00018       0.00000       0.00000  
      97  aqu0970                    aqu          97       0.00050       0.00000       0.00000  
      98  aqu0980                    aqu          98       0.00385       0.00000       0.00000  
      99  aqu0990                    aqu          99       0.00043       0.00000       0.00000  
     100  aqu1000                    aqu         100       0.00171       0.00000       0.00000  
     101  aqu1010                    aqu         101       0.00195       0.00000       0.00000  
     102  aqu1020                    aqu         102       0.00050       0.00000       0.00000  
     103  aqu1030                    aqu         103       0.00090       0.00000       0.00000  
     104  aqu1040                    aqu         104       0.00145       0.00000       0.00000  
     105  aqu1050                    aqu         105       0.00073       0.00000       0.00000  
     106  aqu1060                    aqu         106       0.00062       0.00000       0.00000  
     107  aqu1070                    aqu         107       0.00029       0.00000       0.00000  
     108  aqu1080                    aqu         108       0.00076       0.00000       0.00000  
     109  aqu1090                    aqu         109       0.00096       0.00000       0.00000  
     110  aqu1100                    aqu         110       0.00145       0.00000       0.00000  
     111  aqu1110                    aqu         111       0.00044       0.00000       0.00000  
     112  aqu1120                    aqu         112       0.00108       0.00000       0.00000  
     113  aqu1130                    aqu         113       0.00147       0.00000       0.00000  
     114  aqu1140                    aqu         114       0.00312       0.00000       0.00000  
     115  aqu1150                    aqu         115       0.00127       0.00000       0.00000  
     116  aqu1160                    aqu         116       0.00089       0.00000       0.00000  
     117  aqu1170                    aqu         117       0.00061       0.00000       0.00000  
     118  aqu1180                    aqu         118       0.00115       0.00000       0.00000  
     119  aqu1190                    aqu         119       0.00148       0.00000       0.00000  
     120  aqu1200                    aqu         120       0.00078       0.00000       0.00000  
     121  aqu1210                    aqu         121       0.00103       0.00000       0.00000  
     122  aqu1220                    aqu         122       0.00020       0.00000       0.00000  
     123  aqu1230                    aqu         123       0.00047       0.00000       0.00000  
     124  aqu1240                    aqu         124       0.00164       0.00000       0.00000  
     125  aqu1250                    aqu         125       0.00044       0.00000       0.00000  
     126  aqu1260                    aqu         126       0.00011       0.00000       0.00000  
     127  aqu1270                    aqu         127       0.00128       0.00000       0.00000  
     128  aqu1280                    aqu         128       0.00083       0.00000       0.00000  
     129  aqu1290                    aqu         129       0.00063       0.00000       0.00000  
     130  aqu1300                    aqu         130       0.00049       0.00000       0.00000  
     131  aqu1310                    aqu         131       0.00048       0.00000       0.00000  
     132  aqu1320                    aqu         132       0.00238       0.00000       0.00000  
     133  aqu1330                    aqu         133       0.00070       0.00000       0.00000  
     134  aqu1340                    aqu         134       0.00107       0.00000       0.00000  
     135  aqu1350                    aqu         135       0.00047       0.00000       0.00000  
     136  aqu1360                    aqu         136       0.00023       0.00000       0.00000  
     137  aqu1370                    aqu         137       0.00176       0.00000       0.00000  
     138  aqu1380                    aqu         138       0.00070       0.00000       0.00000  
     139  aqu1390                    aqu         139       0.00078       0.00000       0.00000  
     140  aqu1400                    aqu         140       0.00049       0.00000       0.00000  
     141  aqu1410                    aqu         141       0.00039       0.00000       0.00000  
     142  aqu1420                    aqu         142       0.00004       0.00000       0.00000  
     143  aqu1430                    aqu         143       0.00019       0.00000       0.00000  
     144  aqu1440                    aqu         144       0.00049       0.00000       0.00000  
     145  aqu1450                    aqu         145       0.00265       0.00000       0.00000  
     146  aqu1460                    aqu         146       0.00304       0.00000       0.00000  
     147  aqu1470                    aqu         147       0.00103       0.00000       0.00000  
     148  aqu1480                    aqu         148       0.00228       0.00000       0.00000  
     149  aqu1490                    aqu         149       0.00047       0.00000       0.00000  
     150  aqu1500                    aqu         150       0.00170       0.00000       0.00000  
     151  aqu1510                    aqu         151       0.00052       0.00000       0.00000  
     152  aqu1520                    aqu         152       0.00005       0.00000       0.00000  
     153  aqu1530                    aqu         153       0.00112       0.00000       0.00000  
     154  aqu1540                    aqu         154       0.00145       0.00000       0.00000  
     155  aqu1550                    aqu         155       0.00060       0.00000       0.00000  
     156  aqu1560                    aqu         156       0.00119       0.00000       0.00000  
     157  aqu1570                    aqu         157       0.00233       0.00000       0.00000  
     158  aqu1580                    aqu         158       0.00115       0.00000       0.00000  
     159  aqu1590                    aqu         159       0.00358       0.00000       0.00000  
     160  aqu1600                    aqu         160       0.00014       0.00000       0.00000  
     161  aqu1610                    aqu         161       0.00001       0.00000       0.00000  
     162  aqu1620                    aqu         162       0.00085       0.00000       0.00000  
     163  aqu1630                    aqu         163       0.00040       0.00000       0.00000  
     164  aqu1640                    aqu         164       0.00019       0.00000       0.00000  
     165  aqu1650                    aqu         165       0.00084       0.00000       0.00000  
     166  aqu1660                    aqu         166       0.00063       0.00000       0.00000  
     167  aqu1670                    aqu         167       0.00007       0.00000       0.00000  
     168  aqu1680                    aqu         168       0.00055       0.00000       0.00000  
     169  aqu1690                    aqu         169       0.00123       0.00000       0.00000  
     170  aqu1700                    aqu         170       0.00034       0.00000       0.00000  
     171  aqu1710                    aqu         171       0.00113       0.00000       0.00000  
     172  aqu1720                    aqu         172       0.00105       0.00000       0.00000  
     173  aqu1730                    aqu         173       0.00113       0.00000       0.00000  
     174  aqu1740                    aqu         174       0.00080       0.00000       0.00000  
     175  aqu1750                    aqu         175       0.00160       0.00000       0.00000  
     176  aqu1760                    aqu         176       0.00009       0.00000       0.00000  
     177  aqu1770                    aqu         177       0.00018       0.00000       0.00000  
     178  aqu1780                    aqu         178       0.00100       0.00000       0.00000  
     179  aqu1790                    aqu         179       0.00100       0.00000       0.00000  
     180  aqu1800                    aqu         180       0.00105       0.00000       0.00000  
     181  aqu1810                    aqu         181       0.00113       0.00000       0.00000  
     182  aqu1820                    aqu         182       0.00122       0.00000       0.00000  
     183  aqu1830                    aqu         183       0.00018       0.00000       0.00000  
     184  aqu1840                    aqu         184       0.00105       0.00000       0.00000  
     185  aqu1850                    aqu         185       0.00115       0.00000       0.00000  
     186  aqu1860                    aqu         186       0.00102       0.00000       0.00000  
     187  aqu1870                    aqu         187       0.00115       0.00000       0.00000  
     188  aqu1880                    aqu         188       0.00052       0.00000       0.00000  
     189  aqu1890                    aqu         189       0.00170       0.00000       0.00000  
     190  aqu1900                    aqu         190       0.00060       0.00000       0.00000  
     191  aqu1910                    aqu         191       0.00012       0.00000       0.00000  
     192  aqu1920                    aqu         192       0.00025       0.00000       0.00000  
     193  aqu1930                    aqu         193       0.00147       0.00000       0.00000  
     194  aqu1940                    aqu         194       0.00097       0.00000       0.00000  
     195  aqu1950                    aqu         195       0.00084       0.00000       0.00000  
     196  aqu1960                    aqu         196       0.00136       0.00000       0.00000  
     197  aqu1970                    aqu         197       0.00184       0.00000       0.00000  
     198  aqu1980                    aqu         198       0.00074       0.00000       0.00000  
     199  aqu1990                    aqu         199       0.00047       0.00000       0.00000  
     200  aqu2000                    aqu         200       0.00046       0.00000       0.00000  
     201  aqu2010                    aqu         201       0.00151       0.00000       0.00000  
     202  aqu2020                    aqu         202       0.00259       0.00000       0.00000  
     203  aqu2030                    aqu         203       0.00123       0.00000       0.00000  
     204  aqu2040                    aqu         204       0.00014       0.00000       0.00000  
     205  aqu2050                    aqu         205       0.00057       0.00000       0.00000  
     206  aqu2060                    aqu         206       0.00032       0.00000       0.00000  
     207  aqu2070                    aqu         207       0.00020       0.00000       0.00000  
     208  aqu2080                    aqu         208       0.00135       0.00000       0.00000  
     209  aqu2090                    aqu         209       0.00080       0.00000       0.00000  
     210  aqu2100                    aqu         210       0.00049       0.00000       0.00000  
     211  aqu2110                    aqu         211       0.00337       0.00000       0.00000  
     212  aqu2120                    aqu         212       0.00179       0.00000       0.00000  
     213  aqu2130                    aqu         213       0.00104       0.00000       0.00000  
     214  aqu2140                    aqu         214       0.00071       0.00000       0.00000  
     215  aqu2150                    aqu         215       0.00001       0.00000       0.00000  
     216  aqu2160                    aqu         216       0.00232       0.00000       0.00000  
     217  aqu2170                    aqu         217       0.00167       0.00000       0.00000  
     218  aqu2180                    aqu         218       0.00152       0.00000       0.00000  
     219  aqu2190                    aqu         219       0.00074       0.00000       0.00000  
     220  aqu2200                    aqu         220       0.00147       0.00000       0.00000  
     221  aqu2210                    aqu         221       0.00073       0.00000       0.00000  
     222  aqu2220                    aqu         222       0.00068       0.00000       0.00000  
     223  aqu2230                    aqu         223       0.00126       0.00000       0.00000  
     224  aqu2240                    aqu         224       0.00003       0.00000       0.00000  
     225  aqu2250                    aqu         225       0.00070       0.00000       0.00000  
     226  aqu2260                    aqu         226       0.00067       0.00000       0.00000  
     227  aqu2270                    aqu         227       0.00127       0.00000       0.00000  
     228  aqu2280                    aqu         228       0.00055       0.00000       0.00000  
     229  aqu2290                    aqu         229       0.00071       0.00000       0.00000  
     230  aqu2300                    aqu         230       0.00131       0.00000       0.00000  
     231  aqu2310                    aqu         231       0.00032       0.00000       0.00000  
     232  aqu2320                    aqu         232       0.00149       0.00000       0.00000  
     233  aqu2330                    aqu         233       0.00045       0.00000       0.00000  
     234  aqu2340                    aqu         234       0.00070       0.00000       0.00000  
     235  aqu2350                    aqu         235       0.00017       0.00000       0.00000  
     236  aqu2360                    aqu         236       0.00200       0.00000       0.00000  
     237  aqu2370                    aqu         237       0.00096       0.00000       0.00000  
     238  aqu2380                    aqu         238       0.00101       0.00000       0.00000  
     239  aqu2390                    aqu         239       0.00035       0.00000       0.00000  
     240  aqu2400                    aqu         240       0.00079       0.00000       0.00000  
     241  aqu2410                    aqu         241       0.00161       0.00000       0.00000  
     242  aqu2420                    aqu         242       0.00115       0.00000       0.00000  
     243  aqu2430                    aqu         243       0.00089       0.00000       0.00000  
     244  aqu2440                    aqu         244       0.00140       0.00000       0.00000  
     245  aqu2450                    aqu         245       0.00180       0.00000       0.00000  
     246  aqu2460                    aqu         246       0.00186       0.00000       0.00000  
     247  aqu2470                    aqu         247       0.00108       0.00000       0.00000  
     248  aqu2480                    aqu         248       0.00099       0.00000       0.00000  
     249  aqu2490                    aqu         249       0.00090       0.00000       0.00000  
     250  aqu2500                    aqu         250       0.00038       0.00000       0.00000  
     251  aqu2510                    aqu         251       0.00015       0.00000       0.00000  
     252  aqu2520                    aqu         252       0.00033       0.00000       0.00000  
     253  aqu2530                    aqu         253       0.00070       0.00000       0.00000  
     254  aqu2540                    aqu         254       0.00155       0.00000       0.00000  
     255  aqu2550                    aqu         255       0.00069       0.00000       0.00000  
     256  aqu2560                    aqu         256       0.00074       0.00000       0.00000  
     257  aqu2570                    aqu         257       0.00035       0.00000       0.00000  
     258  aqu2580                    aqu         258       0.00061       0.00000       0.00000  
     259  aqu2590                    aqu         259       0.00449       0.00000       0.00000  
     260  aqu2600                    aqu         260       0.00149       0.00000       0.00000  
     261  aqu2610                    aqu         261       0.00031       0.00000       0.00000  
     262  aqu2620                    aqu         262       0.00131       0.00000       0.00000  
     263  aqu2630                    aqu         263       0.00004       0.00000       0.00000  
     264  aqu2640                    aqu         264       0.00295       0.00000       0.00000  
     265  aqu2650                    aqu         265       0.00238       0.00000       0.00000  
     266  aqu2660                    aqu         266       0.00183       0.00000       0.00000  
     267  aqu2670                    aqu         267       0.00061       0.00000       0.00000  
     268  aqu2680                    aqu         268       0.00003       0.00000       0.00000  
     269  aqu2690                    aqu         269       0.00110       0.00000       0.00000  
     270  aqu2700                    aqu         270       0.00119       0.00000       0.00000  
     271  aqu2710                    aqu         271       0.00110       0.00000       0.00000  
     272  aqu2720                    aqu         272       0.00063       0.00000       0.00000  
     273  aqu2730                    aqu         273       0.00127       0.00000       0.00000  
     274  aqu2740                    aqu         274       0.00001       0.00000       0.00000  
     275  aqu2750                    aqu         275       0.00090       0.00000       0.00000  
     276  aqu2760                    aqu         276       0.00127       0.00000       0.00000  
     277  aqu2770                    aqu         277       0.00068       0.00000       0.00000  
     278  aqu2780                    aqu         278       0.00003       0.00000       0.00000  
     279  aqu2790                    aqu         279       0.00023       0.00000       0.00000  
     280  aqu2800                    aqu         280       0.00011       0.00000       0.00000  
     281  aqu2810                    aqu         281       0.00047       0.00000       0.00000  
     282  aqu2820                    aqu         282       0.00191       0.00000       0.00000  
     283  aqu2830                    aqu         283       0.00022       0.00000       0.00000  
     284  aqu2840                    aqu         284       0.00085       0.00000       0.00000  
     285  aqu2850                    aqu         285       0.00076       0.00000       0.00000  
     286  aqu2860                    aqu         286       0.00151       0.00000       0.00000  
     287  aqu2870                    aqu         287       0.00415       0.00000       0.00000  
     288  aqu2880                    aqu         288       0.00018       0.00000       0.00000  
     289  aqu2890                    aqu         289       0.00109       0.00000       0.00000  
     290  aqu2900                    aqu         290       0.00012       0.00000       0.00000  
     291  aqu2910                    aqu         291       0.00049       0.00000       0.00000  
     292  aqu2920                    aqu         292       0.00028       0.00000       0.00000  
     293  aqu2930                    aqu         293       0.00065       0.00000       0.00000  
     294  aqu2940                    aqu         294       0.00272       0.00000       0.00000  
     295  aqu2950                    aqu         295       0.00061       0.00000       0.00000  
     296  aqu2960                    aqu         296       0.00069       0.00000       0.00000  
     297  aqu2970                    aqu         297       0.00117       0.00000       0.00000  
     298  aqu2980                    aqu         298       0.00335       0.00000       0.00000  
     299  aqu2990                    aqu         299       0.00197       0.00000       0.00000  
     300  aqu3000                    aqu         300       0.00026       0.00000       0.00000  
     301  aqu3010                    aqu         301       0.00059       0.00000       0.00000  
     302  aqu3020                    aqu         302       0.00159       0.00000       0.00000  
     303  aqu3030                    aqu         303       0.00122       0.00000       0.00000  
     304  aqu3040                    aqu         304       0.00068       0.00000       0.00000  
     305  aqu3050                    aqu         305       0.00059       0.00000       0.00000  
     306  aqu3060                    aqu         306       0.00065       0.00000       0.00000  
     307  aqu3070                    aqu         307       0.00106       0.00000       0.00000  