aquifer.con: written by SWAT+ editor v2.3.3 on 2024-08-26 08:40 
      id  name                gis_id          area           lat           lon          elev       aqu               wst       cst      ovfl      rule   out_tot       obj_typ    obj_id       hyd_typ          frac  
       1  aqu0010                 10   26498.50597     -17.63129      33.36368     690.00000         1     s17750s33250e         0         0         0         2           sdc       970           tot       1.00000           aqu       980           rhg       1.00000  
       2  aqu0020                 20   17464.92439     -17.63191      33.26915     698.00000         2     s17750s33250e         0         0         0         2           sdc       969           tot       1.00000           aqu       980           rhg       1.00000  
       3  aqu0030                 30   34241.57590     -17.75623      33.21572     655.00000         3     s17750s33250e         0         0         0         2           sdc       968           tot       1.00000           aqu       980           rhg       1.00000  
       4  aqu0040                 40   46544.45367     -17.77883      33.58567     648.00000         4     s17750s33750e         0         0         0         2           sdc       967           tot       1.00000           aqu       980           rhg       1.00000  
       5  aqu0050                 50   37596.90620     -17.84824      33.31340     619.00000         5     s17750s33250e         0         0         0         2           sdc       454           tot       1.00000           aqu       980           rhg       1.00000  
       6  aqu0060                 60   19701.81126     -17.77041      33.74300     593.00000         6     s17750s33750e         0         0         0         2           sdc       966           tot       1.00000           aqu       980           rhg       1.00000  
       7  aqu0070                 70   26412.47186     -17.86712      33.14408     626.00000         7     s17750s33250e         0         0         0         2           sdc       965           tot       1.00000           aqu       980           rhg       1.00000  
       8  aqu0080                 80   25724.19898     -17.90297      33.47662     646.00000         8     s17750s33250e         0         0         0         2           sdc       963           tot       1.00000           aqu       980           rhg       1.00000  
       9  aqu0090                 90  133180.80273     -18.14470      33.72462     521.00000         9     s18250s33750e         0         0         0         2           sdc       964           tot       1.00000           aqu       980           rhg       1.00000  
      10  aqu0100                100   20562.15236     -17.95074      33.35148     601.00000        10     s17750s33250e         0         0         0         2           sdc       962           tot       1.00000           aqu       980           rhg       1.00000  
      11  aqu0110                110   37941.04264     -17.94830      33.80490     544.00000        11     s17750s33750e         0         0         0         2           sdc       376           tot       1.00000           aqu       980           rhg       1.00000  
      12  aqu0120                120   12905.11654     -17.99015      33.45369     598.00000        12     s17750s33250e         0         0         0         2           sdc       961           tot       1.00000           aqu       980           rhg       1.00000  
      13  aqu0130                130   20648.18647     -18.02227      33.18449     604.00000        13     s18250s33250e         0         0         0         2           sdc       392           tot       1.00000           aqu       980           rhg       1.00000  
      14  aqu0140                140   32004.68903     -18.10398      34.07160     448.00000        14     s18250s34250e         0         0         0         2           sdc       959           tot       1.00000           aqu       980           rhg       1.00000  
      15  aqu0150                150   44049.46447     -18.20679      33.18374     544.00000        15     s18250s33250e         0         0         0         2           sdc       955           tot       1.00000           aqu       980           rhg       1.00000  
      16  aqu0160                160   98939.22684     -18.26304      33.46906     523.00000        16     s18250s33250e         0         0         0         2           sdc       958           tot       1.00000           aqu       980           rhg       1.00000  
      17  aqu0170                170   15658.20807     -18.06530      33.82133     546.00000        17     s18250s33750e         0         0         0         2           sdc       960           tot       1.00000           aqu       980           rhg       1.00000  
      18  aqu0180                180   34929.84878     -18.13960      33.28754     542.00000        18     s18250s33250e         0         0         0         2           sdc       293           tot       1.00000           aqu       980           rhg       1.00000  
      19  aqu0190                190   34843.81467     -18.22715      33.09643     651.00000        19     s18250s33250e         0         0         0         2           sdc       956           tot       1.00000           aqu       980           rhg       1.00000  
      20  aqu0200                200   90421.84992     -18.30417      33.66211     513.00000        20     s18250s33750e         0         0         0         2           sdc       447           tot       1.00000           aqu       980           rhg       1.00000  
      21  aqu0210                210   44651.70324     -18.15236      33.94977     488.00000        21     s18250s33750e         0         0         0         2           sdc       286           tot       1.00000           aqu       980           rhg       1.00000  
      22  aqu0220                220   22540.93690     -18.11919      35.48785     111.00000        22     s18250s35250e         0         0         0         2           sdc       957           tot       1.00000           aqu       973           rhg       1.00000  
      23  aqu0230                230    2064.81865     -18.07017      33.25139     532.00000        23     s18250s33250e         0         0         0         2           sdc       300           tot       1.00000           aqu       980           rhg       1.00000  
      24  aqu0240                240   22971.10745     -18.16486      31.89243    1551.00000        24     s18250s31750e         0         0         0         2           sdc       951           tot       1.00000           aqu       988           rhg       1.00000  
      25  aqu0250                250   22885.07334     -18.19212      35.49063     107.00000        25     s18250s35250e         0         0         0         2           sdc       954           tot       1.00000           aqu       973           rhg       1.00000  
      26  aqu0260                260   13421.32121     -18.19630      31.77319    1534.00000        26     s18250s31750e         0         0         0         2           sdc       953           tot       1.00000           aqu       988           rhg       1.00000  
      27  aqu0270                270   16260.44685     -18.19542      35.38306     174.00000        27     s18250s35250e         0         0         0         2           sdc       952           tot       1.00000           aqu       973           rhg       1.00000  
      28  aqu0280                280   14539.76464     -18.24638      31.52277    1569.00000        28     s18250s31750e         0         0         0         2           sdc       943           tot       1.00000           aqu       988           rhg       1.00000  
      29  aqu0290                290   43705.32803     -18.33740      31.64549    1494.00000        29     s18250s31750e         0         0         0         2           sdc       948           tot       1.00000           aqu       988           rhg       1.00000  
      30  aqu0300                300   17895.09494     -18.27129      32.99115     724.00000        30     s18250s32750e         0         0         0         2           sdc       945           tot       1.00000           aqu       980           rhg       1.00000  
      31  aqu0310                310    5936.35361     -18.24084      34.09174     363.00000        31     s18250s34250e         0         0         0         2           sdc       227           tot       1.00000           aqu       980           rhg       1.00000  
      32  aqu0320                320   36736.56510     -18.28792      34.32407     215.00000        32     s18250s34250e         0         0         0         2           sdc       947           tot       1.00000           aqu       980           rhg       1.00000  
      33  aqu0330                330   16088.37862     -18.26615      31.44218    1567.00000        33     s18250s31250e         0         0         0         2           sdc       944           tot       1.00000           aqu       988           rhg       1.00000  
      34  aqu0340                340   15228.03752     -18.24863      35.34437     218.00000        34     s18250s35250e         0         0         0         2           sdc       949           tot       1.00000           aqu       973           rhg       1.00000  
      35  aqu0350                350   13421.32121     -18.28479      31.94478    1548.00000        35     s18250s31750e         0         0         0         2           sdc       942           tot       1.00000           aqu       988           rhg       1.00000  
      36  aqu0360                360   30886.24560     -18.31502      34.52719      98.00000        36     s18250s34750e         0         0         0         2           sdc       946           tot       1.00000           aqu       980           rhg       1.00000  
      37  aqu0370                370    3613.43263     -18.24508      35.63675      46.00000        37     s18250s35750e         0         0         0         2           sdc       436           tot       1.00000           aqu       973           rhg       1.00000  
      38  aqu0380                380   26068.33542     -18.29662      34.01509     451.00000        38     s18250s34250e         0         0         0         2           sdc       950           tot       1.00000           aqu       980           rhg       1.00000  
      39  aqu0390                390   51448.39796     -18.40089      34.19724     461.00000        39     s18250s34250e         0         0         0         2           sdc       211           tot       1.00000           aqu       980           rhg       1.00000  
      40  aqu0400                400   27875.05173     -18.33297      31.83151    1442.00000        40     s18250s31750e         0         0         0         2           sdc       435           tot       1.00000           aqu       988           rhg       1.00000  
      41  aqu0410                410   13507.35532     -18.27164      31.84479    1446.00000        41     s18250s31750e         0         0         0         2           sdc       484           tot       1.00000           aqu       988           rhg       1.00000  
      42  aqu0420                420   71838.48209     -18.38977      35.75750      13.00000        42     s18250s35750e         0         0         0         2           sdc       351           tot       1.00000           aqu       973           rhg       1.00000  
      43  aqu0430                430   14969.93519     -18.33828      34.26403     283.00000        43     s18250s34250e         0         0         0         2           sdc       935           tot       1.00000           aqu       980           rhg       1.00000  
      44  aqu0440                440   12474.94599     -18.36597      31.56946    1433.00000        44     s18250s31750e         0         0         0         2           sdc       479           tot       1.00000           aqu       988           rhg       1.00000  
      45  aqu0450                450   50588.05685     -18.41762      33.33266     516.00000        45     s18250s33250e         0         0         0         2           sdc       234           tot       1.00000           aqu       980           rhg       1.00000  
      46  aqu0460                460   11528.57078     -18.28988      35.56259      74.00000        46     s18250s35750e         0         0         0         2           sdc       467           tot       1.00000           aqu       973           rhg       1.00000  
      47  aqu0470                470   42156.71404     -18.43509      32.04761    1483.00000        47     s18250s32250e         0         0         0         2           sdc       938           tot       1.00000           aqu       988           rhg       1.00000  
      48  aqu0480                480   19357.67482     -18.35610      33.06731     590.00000        48     s18250s33250e         0         0         0         2           sdc       461           tot       1.00000           aqu       980           rhg       1.00000  
      49  aqu0490                490   45426.01023     -18.39604      35.17316     196.00000        49     s18250s35250e         0         0         0         2           sdc       934           tot       1.00000           aqu       973           rhg       1.00000  
      50  aqu0500                500   42070.67993     -18.41119      35.57558      68.00000        50     s18250s35750e         0         0         0         2           sdc       941           tot       1.00000           aqu       973           rhg       1.00000  
      51  aqu0510                510   30111.93860     -18.37773      31.44613    1450.00000        51     s18250s31250e         0         0         0         2           sdc       940           tot       1.00000           aqu       988           rhg       1.00000  
      52  aqu0520                520   16346.48096     -18.38175      31.74180    1438.00000        52     s18250s31750e         0         0         0         2           sdc       933           tot       1.00000           aqu       988           rhg       1.00000  
      53  aqu0530                530   25121.96021     -18.38762      32.81189    1690.00000        53     s18250s32750e         0         0         0         2           sdc       937           tot       1.00000           aqu       980           rhg       1.00000  
      54  aqu0540                540   31574.51848     -18.37796      32.92489     760.00000        54     s18250s32750e         0         0         0         2           sdc       936           tot       1.00000           aqu       980           rhg       1.00000  
      55  aqu0550                550   37941.04264     -18.42224      35.45804     105.00000        55     s18250s35250e         0         0         0         2           sdc       939           tot       1.00000           aqu       973           rhg       1.00000  
      56  aqu0560                560   39919.82718     -18.42794      32.28669    1583.00000        56     s18250s32250e         0         0         0         2           sdc       932           tot       1.00000           aqu       988           rhg       1.00000  
      57  aqu0570                570   37855.00853     -18.46933      33.98878     584.00000        57     s18250s33750e         0         0         0         2           sdc       930           tot       1.00000           aqu       980           rhg       1.00000  
      58  aqu0580                580   25121.96021     -18.39157      34.47893      96.00000        58     s18250s34250e         0         0         0         2           sdc       929           tot       1.00000           aqu       980           rhg       1.00000  
      59  aqu0590                590   28391.25640     -18.45573      31.35156    1481.00000        59     s18250s31250e         0         0         0         2           sdc       926           tot       1.00000           aqu       988           rhg       1.00000  
      60  aqu0600                600   23229.20978     -18.39694      32.18579    1556.00000        60     s18250s32250e         0         0         0         2           sdc       931           tot       1.00000           aqu       988           rhg       1.00000  
      61  aqu0610                610   47146.69244     -18.48671      35.40500     102.00000        61     s18250s35250e         0         0         0         2           sdc       928           tot       1.00000           aqu       973           rhg       1.00000  
      62  aqu0620                620   14367.69642     -18.44159      31.96672    1413.00000        62     s18250s31750e         0         0         0         2           sdc       922           tot       1.00000           aqu       988           rhg       1.00000  
      63  aqu0630                630   25896.26720     -18.52217      32.56638    1583.00000        63     s18750s32750e         0         0         0         2           sdc       913           tot       1.00000           aqu       988           rhg       1.00000  
      64  aqu0640                640   40436.03184     -18.50467      32.65744    1512.00000        64     s18750s32750e         0         0         0         2           sdc       924           tot       1.00000           aqu       988           rhg       1.00000  
      65  aqu0650                650   15744.24218     -18.49411      34.06720     814.00000        65     s18250s34250e         0         0         0         2           sdc       908           tot       1.00000           aqu       980           rhg       1.00000  
      66  aqu0660                660   35704.15577     -18.49812      34.67226      43.00000        66     s18250s34750e         0         0         0         2           sdc       131           tot       1.00000           aqu       980           rhg       1.00000  
      67  aqu0670                670   24175.58499     -18.46373      32.50418    1486.00000        67     s18250s32750e         0         0         0         2           sdc       925           tot       1.00000           aqu       988           rhg       1.00000  
      68  aqu0680                680   16776.65151     -18.45748      35.91934      12.00000        68     s18250s35750e         0         0         0         2           sdc       927           tot       1.00000           aqu       973           rhg       1.00000  
      69  aqu0690                690   20906.28880     -18.45777      31.87310    1328.00000        69     s18250s31750e         0         0         0         2           sdc       382           tot       1.00000           aqu       988           rhg       1.00000  
      70  aqu0700                700   16088.37862     -18.49103      33.45563     508.00000        70     s18250s33250e         0         0         0         2           sdc       918           tot       1.00000           aqu       980           rhg       1.00000  
      71  aqu0710                710   35704.15577     -18.50832      32.38208    1334.00000        71     s18750s32250e         0         0         0         2           sdc       921           tot       1.00000           aqu       988           rhg       1.00000  
      72  aqu0720                720    7140.83115     -18.44533      33.13835     531.00000        72     s18250s33250e         0         0         0         2           sdc       366           tot       1.00000           aqu       980           rhg       1.00000  
      73  aqu0730                730   16604.58329     -18.48093      33.19423     533.00000        73     s18250s33250e         0         0         0         2           sdc       287           tot       1.00000           aqu       980           rhg       1.00000  
      74  aqu0740                740   29337.63161     -18.50233      31.24595    1398.00000        74     s18750s31250e         0         0         0         2           sdc       920           tot       1.00000           aqu       988           rhg       1.00000  
      75  aqu0750                750   18067.16316     -18.49832      31.50237    1415.00000        75     s18250s31750e         0         0         0         2           sdc       919           tot       1.00000           aqu       988           rhg       1.00000  
      76  aqu0760                760   38715.34963     -18.54159      33.63919     445.00000        76     s18750s33750e         0         0         0         2           sdc       915           tot       1.00000           aqu       980           rhg       1.00000  
      77  aqu0770                770   14367.69642     -18.49901      31.73650    1395.00000        77     s18250s31750e         0         0         0         2           sdc       916           tot       1.00000           aqu       988           rhg       1.00000  
      78  aqu0780                780    3613.43263     -18.43586      34.35115     103.00000        78     s18250s34250e         0         0         0         2           sdc       431           tot       1.00000           aqu       980           rhg       1.00000  
      79  aqu0790                790   16174.41274     -18.52529      35.61224      36.00000        79     s18750s35750e         0         0         0         2           sdc       364           tot       1.00000           aqu       973           rhg       1.00000  
      80  aqu0800                800   13249.25299     -18.48091      34.44738      73.00000        80     s18250s34250e         0         0         0         2           sdc       164           tot       1.00000           aqu       980           rhg       1.00000  
      81  aqu0810                810   14453.73053     -18.49583      32.95557     735.00000        81     s18250s32750e         0         0         0         2           sdc       405           tot       1.00000           aqu       980           rhg       1.00000  
      82  aqu0820                820   35790.18988     -18.59699      33.93419     398.00000        82     s18750s33750e         0         0         0         2           sdc       226           tot       1.00000           aqu       980           rhg       1.00000  
      83  aqu0830                830   25896.26720     -18.56083      35.09638     207.00000        83     s18750s35250e         0         0         0         2           sdc       914           tot       1.00000           aqu       973           rhg       1.00000  
      84  aqu0840                840   14367.69642     -18.51475      33.06472     602.00000        84     s18750s33250e         0         0         0         2           sdc       326           tot       1.00000           aqu       980           rhg       1.00000  
      85  aqu0850                850   19615.77715     -18.55586      35.27674     125.00000        85     s18750s35250e         0         0         0         2           sdc       453           tot       1.00000           aqu       973           rhg       1.00000  
      86  aqu0860                860    5420.14895     -18.48772      31.58643    1344.00000        86     s18250s31750e         0         0         0         2           sdc       414           tot       1.00000           aqu       988           rhg       1.00000  
      87  aqu0870                870   58331.12678     -18.59174      32.76124     889.00000        87     s18750s32750e         0         0         0         2           sdc       909           tot       1.00000           aqu       980           rhg       1.00000  
      88  aqu0880                880   48523.23821     -18.57117      34.26256     162.00000        88     s18750s34250e         0         0         0         2           sdc       917           tot       1.00000           aqu       980           rhg       1.00000  
      89  aqu0890                890   17809.06083     -18.50001      35.14999     240.00000        89     s18750s35250e         0         0         0         2           sdc       923           tot       1.00000           aqu       973           rhg       1.00000  
      90  aqu0900                900   24691.78965     -18.56454      35.97726      12.00000        90     s18750s35750e         0         0         0         2           sdc       911           tot       1.00000           aqu       973           rhg       1.00000  
      91  aqu0910                910     258.10233     -18.47274      34.55512      46.00000        91     s18250s34750e         0         0         0         2           sdc       133           tot       1.00000           aqu       980           rhg       1.00000  
      92  aqu0920                920   15314.07163     -18.58554      32.08207    1351.00000        92     s18750s32250e         0         0         0         2           sdc       407           tot       1.00000           aqu       988           rhg       1.00000  
      93  aqu0930                930    8517.37692     -18.53685      33.23234     524.00000        93     s18750s33250e         0         0         0         2           sdc       259           tot       1.00000           aqu       980           rhg       1.00000  
      94  aqu0940                940   17206.82206     -18.61623      34.42399      57.00000        94     s18750s34250e         0         0         0         2           sdc       900           tot       1.00000           aqu       980           rhg       1.00000  
      95  aqu0950                950   40608.10006     -18.63655      31.50018    1322.00000        95     s18750s31750e         0         0         0         2           sdc       907           tot       1.00000           aqu       988           rhg       1.00000  
      96  aqu0960                960    4043.60318     -18.55647      31.61053    1344.00000        96     s18750s31750e         0         0         0         2           sdc       365           tot       1.00000           aqu       988           rhg       1.00000  
      97  aqu0970                970   11184.43434     -18.57205      33.32524     524.00000        97     s18750s33250e         0         0         0         2           sdc       243           tot       1.00000           aqu       980           rhg       1.00000  
      98  aqu0980                980   85948.07618     -18.67950      34.64192      24.00000        98     s18750s34750e         0         0         0         2           sdc       115           tot       1.00000           aqu       980           rhg       1.00000  
      99  aqu0990                990    9635.82035     -18.56152      35.88851      12.00000        99     s18750s35750e         0         0         0         2           sdc       241           tot       1.00000           aqu       973           rhg       1.00000  
     100  aqu1000               1000   38027.07675     -18.63687      31.79933    1438.00000       100     s18750s31750e         0         0         0         2           sdc       314           tot       1.00000           aqu       988           rhg       1.00000  
     101  aqu1010               1010   43533.25981     -18.67431      32.90328     836.00000       101     s18750s32750e         0         0         0         2           sdc       897           tot       1.00000           aqu       980           rhg       1.00000  
     102  aqu1020               1020   11184.43434     -18.59227      33.53257     441.00000       102     s18750s33750e         0         0         0         2           sdc       296           tot       1.00000           aqu       980           rhg       1.00000  
     103  aqu1030               1030   20131.98181     -18.63638      33.83132     474.00000       103     s18750s33750e         0         0         0         2           sdc       901           tot       1.00000           aqu       980           rhg       1.00000  
     104  aqu1040               1040   32434.85958     -18.66131      34.24462     186.00000       104     s18750s34250e         0         0         0         2           sdc       904           tot       1.00000           aqu       980           rhg       1.00000  
     105  aqu1050               1050   16174.41274     -18.64644      34.49251      42.00000       105     s18750s34250e         0         0         0         2           sdc       898           tot       1.00000           aqu       980           rhg       1.00000  
     106  aqu1060               1060   13851.49176     -18.63801      31.89249    1234.00000       106     s18750s31750e         0         0         0         2           sdc       896           tot       1.00000           aqu       988           rhg       1.00000  
     107  aqu1070               1070    6538.59238     -18.57969      31.94826    1280.00000       107     s18750s31750e         0         0         0         2           sdc       323           tot       1.00000           aqu       988           rhg       1.00000  
     108  aqu1080               1080   16862.68562     -18.60225      35.42903      87.00000       108     s18750s35250e         0         0         0         2           sdc       906           tot       1.00000           aqu       973           rhg       1.00000  
     109  aqu1090               1090   21508.52757     -18.61456      35.69488      12.00000       109     s18750s35750e         0         0         0         2           sdc       316           tot       1.00000           aqu       973           rhg       1.00000  
     110  aqu1100               1100   32348.82547     -18.61441      31.20603    1391.00000       110     s18750s31250e         0         0         0         2           sdc       910           tot       1.00000           aqu       988           rhg       1.00000  
     111  aqu1110               1110    9721.85446     -18.58685      31.66309    1335.00000       111     s18750s31750e         0         0         0         2           sdc       349           tot       1.00000           aqu       988           rhg       1.00000  