bmpuser.str: written by SWAT+ editor v2.3.3 on 2024-08-26 08:41 
name                  flag       sed_eff      ptlp_eff      solp_eff      ptln_eff      soln_eff      bact_eff  description
bmpusr1                  1       0.20000       0.20000       0.20000       0.20000       0.20000       0.20000  
