chandeg.con: written by SWAT+ editor v2.3.3 on 2024-08-26 08:40 
      id  name                gis_id          area           lat           lon          elev      lcha               wst       cst      ovfl      rule   out_tot       obj_typ    obj_id       hyd_typ          frac  
       1  cha001                   1  11359427.78880     -21.01702      34.94300             0         1     s21250s34750e         0         0         0         0  
       2  cha002                   2  11329831.73120     -21.04896      34.85542             0         2     s21250s34750e         0         0         0         1           sdc         1           tot       1.00000  
       3  cha003                   3  11311937.12640     -21.07291      34.76366             0         3     s21250s34750e         0         0         0         1           sdc         2           tot       1.00000  
       4  cha004                   4  11270554.41920     -21.11681      34.62602             0         4     s21250s34750e         0         0         0         1           sdc         3           tot       1.00000  
       5  cha005                   5  11232871.21920     -21.14075      34.54261             0         5     s21250s34750e         0         0         0         1           sdc         4           tot       1.00000  
       6  cha006                   6  11218160.02560     -21.15672      34.48839             0         6     s21250s34250e         0         0         0         1           sdc         5           tot       1.00000  
       7  cha007                   7  11188649.98400     -21.18066      34.45502             0         7     s21250s34250e         0         0         0         1           sdc         6           tot       1.00000  
       8  cha008                   8  11172303.66720     -21.23650      34.40914             0         8     s21250s34250e         0         0         0         1           sdc         7           tot       1.00000  
       9  cha009                   9  10995417.08800     -21.29234      34.33407             0         9     s21250s34250e         0         0         0         1           sdc         8           tot       1.00000  
      10  cha010                  10  10734561.68960     -21.30829      34.12970             0        10     s21250s34250e         0         0         0         1           sdc         9           tot       1.00000  
      11  cha011                  11  10645516.28800     -21.36012      33.91699             0        11     s21250s33750e         0         0         0         1           sdc        10           tot       1.00000  
      12  cha012                  12  10477405.79840     -21.39600      33.71262             0        12     s21250s33750e         0         0         0         1           sdc        11           tot       1.00000  
      13  cha013                  13  10401782.16960     -21.40397      33.51242             0        13     s21250s33750e         0         0         0         1           sdc        12           tot       1.00000  
      14  cha014                  14  10319619.68640     -21.44383      33.44151             0        14     s21250s33250e         0         0         0         1           sdc        13           tot       1.00000  
      15  cha015                  15  10298368.81920     -21.46774      33.39564             0        15     s21250s33250e         0         0         0         1           sdc        14           tot       1.00000  
      16  cha016                  16  10235994.11200     -21.48368      33.32473             0        16     s21250s33250e         0         0         0         1           sdc        15           tot       1.00000  
      17  cha017                  17  10194784.25600     -21.48766      33.25383             0        17     s21250s33250e         0         0         0         1           sdc        16           tot       1.00000  
      18  cha018                  18  10043622.19520     -21.48368      33.22046             0        18     s21250s33250e         0         0         0         1           sdc        17           tot       1.00000  
      19  cha019                  19  9979268.30080     -21.48766      33.04946             0        19     s21250s33250e         0         0         0         1           sdc        18           tot       1.00000  
      20  cha020                  20  9748008.96000     -21.46774      32.82006             0        20     s21250s32750e         0         0         0         1           sdc        19           tot       1.00000  
      21  cha021                  21  9589447.88480     -21.42390      32.70328             0        21     s21250s32750e         0         0         0         1           sdc        20           tot       1.00000  
      22  cha022                  22  9449900.44160     -21.35614      32.56147             0        22     s21250s32750e         0         0         0         1           sdc        21           tot       1.00000  
      23  cha023                  23  9376083.14880     -21.31228      32.43218             0        23     s21250s32250e         0         0         0         1           sdc        22           tot       1.00000  
      24  cha024                  24  4574089.62560     -21.31627      32.36545             0        24     s21250s32250e         0         0         0         1           sdc        23           tot       1.00000  
      25  cha025                  25  4549311.69280     -21.35215      32.24866             0        25     s21250s32250e         0         0         0         1           sdc        24           tot       1.00000  
      26  cha026                  26  4485474.30400     -21.40796      32.10686             0        26     s21250s32250e         0         0         0         1           sdc        25           tot       1.00000  
      27  cha027                  27  4797606.29760     -21.24847      32.34459             0        27     s21250s32250e         0         0         0         1           sdc        23           tot       1.00000  
      28  cha028                  28  4781259.57120     -21.13676      32.27369             0        28     s21250s32250e         0         0         0         1           sdc        27           tot       1.00000  
      29  cha029                  29  4760611.63520     -21.08488      32.26118             0        29     s21250s32250e         0         0         0         1           sdc        28           tot       1.00000  
      30  cha030                  30  4329494.52800     -21.36012      31.97756             0        30     s21250s31750e         0         0         0         1           sdc        26           tot       1.00000  
      31  cha031                  31  4212832.25600     -21.28038      31.90666             0        31     s21250s31750e         0         0         0         1           sdc        30           tot       1.00000  
      32  cha032                  32  4199238.86080     -21.23252      31.88163             0        32     s21250s31750e         0         0         0         1           sdc        31           tot       1.00000  
      33  cha033                  33  4134971.39200     -21.18464      31.85244             0        33     s21250s31750e         0         0         0         1           sdc        32           tot       1.00000  
      34  cha034                  34  4675867.85280     -21.00504      32.19861             0        34     s21250s32250e         0         0         0         1           sdc        29           tot       1.00000  
      35  cha035                  35  3738182.04160     -21.20060      31.76068             0        35     s21250s31750e         0         0         0         1           sdc        33           tot       1.00000  
      36  cha036                  36  3684841.06240     -21.22454      31.66892             0        36     s21250s31750e         0         0         0         1           sdc        35           tot       1.00000  
      37  cha037                  37  3504083.35360     -19.88850      34.63853             0        37     s19750s34250e         0         0         0         0  
      38  cha038                  38  3474143.23200     -19.88449      34.57597             0        38     s19750s34250e         0         0         0         1           sdc        37           tot       1.00000  
      39  cha039                  39  3310850.66240     -19.57143      34.53844             0        39     s19750s34250e         0         0         0         0  
      40  cha040                  40  3164592.74240     -19.88449      34.53844             0        40     s19750s34250e         0         0         0         1           sdc        38           tot       1.00000  
      41  cha041                  41  3561467.90400     -21.20459      31.61470             0        41     s21250s31750e         0         0         0         1           sdc        36           tot       1.00000  
      42  cha042                  42  4461470.92480     -20.81331      32.18193             0        42     s20750s32250e         0         0         0         1           sdc        34           tot       1.00000  
      43  cha043                  43  3537550.54080     -21.17268      31.54380             0        43     s21250s31750e         0         0         0         1           sdc        41           tot       1.00000  
      44  cha044                  44  4401419.05920     -20.66542      32.24032             0        44     s20750s32250e         0         0         0         1           sdc        42           tot       1.00000  
      45  cha045                  45  3515181.87520     -21.15672      31.49792             0        45     s21250s31250e         0         0         0         1           sdc        43           tot       1.00000  
      46  cha046                  46  3206921.42080     -19.47503      34.54261             0        46     s19250s34750e         0         0         0         1           sdc        39           tot       1.00000  
      47  cha047                  47  4345324.74880     -20.59744      32.26952             0        47     s20750s32250e         0         0         0         1           sdc        44           tot       1.00000  
      48  cha048                  48  3109788.87680     -19.90454      34.40914             0        48     s19750s34250e         0         0         0         1           sdc        40           tot       1.00000  
      49  cha049                  49  4271937.53600     -20.53344      32.28620             0        49     s20750s32250e         0         0         0         1           sdc        47           tot       1.00000  
      50  cha050                  50  2655184.69120     -21.16470      31.39782             0        50     s21250s31250e         0         0         0         1           sdc        45           tot       1.00000  
      51  cha051                  51  2976780.28800     -19.94064      34.27150             0        51     s19750s34250e         0         0         0         1           sdc        48           tot       1.00000  
      52  cha052                  52  2811938.81600     -19.31026      34.52592             0        52     s19250s34750e         0         0         0         1           sdc        46           tot       1.00000  
      53  cha053                  53  2576979.76320     -21.16071      31.28938             0        53     s21250s31250e         0         0         0         1           sdc        50           tot       1.00000  
      54  cha054                  54  2734852.30080     -19.19767      34.52175             0        54     s19250s34750e         0         0         0         1           sdc        52           tot       1.00000  
      55  cha055                  55  2950109.59360     -19.95668      34.20060             0        55     s19750s34250e         0         0         0         1           sdc        51           tot       1.00000  
      56  cha056                  56  2698976.05120     -19.16549      34.53009             0        56     s19250s34750e         0         0         0         1           sdc        54           tot       1.00000  
      57  cha057                  57  2481223.68000     -21.14474      31.23099             0        57     s21250s31250e         0         0         0         1           sdc        53           tot       1.00000  
      58  cha058                  58  2682887.78240     -19.14538      34.53009             0        58     s19250s34750e         0         0         0         1           sdc        56           tot       1.00000  
      59  cha059                  59  2468404.63360     -21.14075      31.17677             0        59     s21250s31250e         0         0         0         1           sdc        57           tot       1.00000  
      60  cha060                  60  3884267.92960     -20.39338      32.29454             0        60     s20250s32250e         0         0         0         1           sdc        49           tot       1.00000  
      61  cha061                  61  3803396.09600     -20.26125      32.31123             0        61     s20250s32250e         0         0         0         1           sdc        60           tot       1.00000  
      62  cha062                  62  2935053.72160     -19.94064      34.10884             0        62     s19750s34250e         0         0         0         1           sdc        55           tot       1.00000  
      63  cha063                  63  2373422.89920     -21.09286      31.10586             0        63     s21250s31250e         0         0         0         1           sdc        59           tot       1.00000  
      64  cha064                  64  3781629.13280     -20.21318      32.32374             0        64     s20250s32250e         0         0         0         1           sdc        61           tot       1.00000  
      65  cha065                  65  3716673.53600     -20.17713      32.32791             0        65     s20250s32250e         0         0         0         1           sdc        64           tot       1.00000  
      66  cha066                  66  2344343.55200     -21.03299      31.04747             0        66     s21250s31250e         0         0         0         1           sdc        63           tot       1.00000  
      67  cha067                  67  2881024.20480     -19.87246      34.04211             0        67     s19750s34250e         0         0         0         1           sdc        62           tot       1.00000  
      68  cha068                  68  2840071.98720     -19.82833      34.01708             0        68     s19750s34250e         0         0         0         1           sdc        67           tot       1.00000  
      69  cha069                  69  2285926.40000     -20.98508      30.96823             0        69     s20750s30750e         0         0         0         1           sdc        66           tot       1.00000  
      70  cha070                  70  3687163.90400     -20.08496      32.33625             0        70     s20250s32250e         0         0         0         1           sdc        65           tot       1.00000  
      71  cha071                  71  1776432.33280     -19.09308      34.36743             0        71     s19250s34250e         0         0         0         1           sdc        58           tot       1.00000  
      72  cha072                  72  2766168.67840     -19.98074      32.34459             0        72     s19750s32250e         0         0         0         1           sdc        70           tot       1.00000  
      73  cha073                  73  2248415.43680     -20.94115      30.85979             0        73     s20750s30750e         0         0         0         1           sdc        69           tot       1.00000  
      74  cha074                  74  906197.29920     -19.09710      34.54261             0        74     s19250s34750e         0         0         0         1           sdc        58           tot       1.00000  
      75  cha075                  75  2739584.20480     -19.94866      32.34876             0        75     s19750s32250e         0         0         0         1           sdc        72           tot       1.00000  
      76  cha076                  76  2229057.74080     -20.91719      30.80974             0        76     s20750s30750e         0         0         0         1           sdc        73           tot       1.00000  
      77  cha077                  77  854920.96000     -21.11681      31.43953             0        77     s21250s31250e         0         0         0         1           sdc        45           tot       1.00000  
      78  cha078                  78  1731264.30720     -19.03272      34.18392             0        78     s19250s34250e         0         0         0         1           sdc        71           tot       1.00000  
      79  cha079                  79  827303.98720     -21.05694      31.38948             0        79     s21250s31250e         0         0         0         1           sdc        77           tot       1.00000  
      80  cha080                  80  882968.06400     -19.00857      34.54678             0        80     s19250s34750e         0         0         0         1           sdc        74           tot       1.00000  
      81  cha081                  81  1910817.58720     -19.91257      33.88779             0        81     s19750s33750e         0         0         0         1           sdc        68           tot       1.00000  
      82  cha082                  82  611874.61120     -18.95222      34.54261             0        82     s18750s34750e         0         0         0         1           sdc        80           tot       1.00000  
      83  cha083                  83  794783.12960     -21.00903      31.36862             0        83     s21250s31250e         0         0         0         1           sdc        79           tot       1.00000  
      84  cha084                  84  1414917.01760     -20.90520      30.74717             0        84     s20750s30750e         0         0         0         1           sdc        76           tot       1.00000  
      85  cha085                  85  893378.15040     -21.39999      35.05979             0        85     s21250s34750e         0         0         0         0  
      86  cha086                  86  1122659.12320     -20.01281      33.77518             0        86     s20250s33750e         0         0         0         1           sdc        81           tot       1.00000  
      87  cha087                  87  2703966.00320     -19.86042      32.37379             0        87     s19750s32250e         0         0         0         1           sdc        75           tot       1.00000  
      88  cha088                  88  772414.25920     -20.95712      31.34360             0        88     s20750s31250e         0         0         0         1           sdc        83           tot       1.00000  
      89  cha089                  89  1698399.33440     -18.96832      34.10050             0        89     s18750s34250e         0         0         0         1           sdc        78           tot       1.00000  
      90  cha090                  90  1102096.99840     -20.07294      33.76684             0        90     s20250s33750e         0         0         0         1           sdc        86           tot       1.00000  
      91  cha091                  91  595269.99040     -18.88377      34.54261             0        91     s18750s34750e         0         0         0         1           sdc        82           tot       1.00000  
      92  cha092                  92  1291974.24640     -18.90793      34.00874             0        92     s18750s34250e         0         0         0         1           sdc        89           tot       1.00000  
      93  cha093                  93  740667.64800     -20.90520      31.30189             0        93     s20750s31250e         0         0         0         1           sdc        88           tot       1.00000  
      94  cha094                  94  825497.29280     -21.48766      35.06396             0        94     s21750s35250e         0         0         0         1           sdc        85           tot       1.00000  
      95  cha095                  95  1381535.74400     -20.84927      30.67210             0        95     s20750s30750e         0         0         0         1           sdc        84           tot       1.00000  
      96  cha096                  96  1074135.85920     -20.14908      33.72930             0        96     s20250s33750e         0         0         0         1           sdc        90           tot       1.00000  
      97  cha097                  97  813280.46080     -20.83329      30.82642             0        97     s20750s30750e         0         0         0         1           sdc        76           tot       1.00000  
      98  cha098                  98  1858422.78400     -19.74808      32.33625             0        98     s19750s32250e         0         0         0         1           sdc        87           tot       1.00000  
      99  cha099                  99  1162492.92800     -20.57344      34.68024             0        99     s20750s34750e         0         0         0         0  
     100  cha100                 100  1336023.65440     -20.77735      30.63873             0       100     s20750s30750e         0         0         0         1           sdc        95           tot       1.00000  
     101  cha101                 101  721396.01920     -20.82930      31.25601             0       101     s20750s31250e         0         0         0         1           sdc        93           tot       1.00000  
     102  cha103                 103  1139779.89120     -20.63343      34.66356             0       102     s20750s34750e         0         0         0         1           sdc        99           tot       1.00000  
     103  cha104                 104  927963.95520     -19.80426      33.95452             0       103     s19750s33750e         0         0         0         1           sdc        68           tot       1.00000  
     104  cha105                 105  683110.86080     -21.61115      35.09315             0       104     s21750s35250e         0         0         0         1           sdc        94           tot       1.00000  
     105  cha106                 106  1030430.51520     -20.23321      33.68342             0       105     s20250s33750e         0         0         0         1           sdc        96           tot       1.00000  
     106  cha107                 107  1817126.50240     -19.66378      32.25701             0       106     s19750s32250e         0         0         0         1           sdc        98           tot       1.00000  
     107  cha108                 108  1247408.53760     -18.83948      33.92116             0       107     s18750s33750e         0         0         0         1           sdc        92           tot       1.00000  
     108  cha109                 109  1287242.34240     -20.75736      30.57617             0       108     s20750s30750e         0         0         0         1           sdc       100           tot       1.00000  
     109  cha110                 110  621940.58240     -20.74937      31.23099             0       109     s20750s31250e         0         0         0         1           sdc       101           tot       1.00000  
     110  cha111                 111  1189335.55200     -18.78309      33.85442             0       110     s18750s33750e         0         0         0         1           sdc       107           tot       1.00000  
     111  cha113                 113  910068.83840     -19.77215      33.87111             0       111     s19750s33750e         0         0         0         1           sdc       103           tot       1.00000  
     112  cha114                 114  977347.48160     -20.27727      33.61669             0       112     s20250s33750e         0         0         0         1           sdc       105           tot       1.00000  
     113  cha115                 115  1758107.03360     -19.56742      32.21530             0       113     s19750s32250e         0         0         0         1           sdc       106           tot       1.00000  
     114  cha116                 116  1715692.23680     -19.50717      32.19027             0       114     s19750s32250e         0         0         0         1           sdc       113           tot       1.00000  
     115  cha117                 117  546230.57920     -18.69445      34.59266             0       115     s18750s34750e         0         0         0         1           sdc        91           tot       1.00000  
     116  cha118                 118  807946.34240     -19.77215      32.39881             0       116     s19750s32250e         0         0         0         1           sdc        87           tot       1.00000  
     117  cha119                 119  728700.18307     -20.60144      30.75969             0       117     s20750s30750e         0         0         0         1           res         1           tot       1.00000  
     118  cha120                 120  889420.59520     -19.72801      33.81272             0       118     s19750s33750e         0         0         0         1           sdc       111           tot       1.00000  
     119  cha121                 121  1085922.50880     -18.75892      33.78769             0       119     s18750s33750e         0         0         0         1           sdc       110           tot       1.00000  
     120  cha122                 122  908004.04480     -20.27326      33.53327             0       120     s20250s33750e         0         0         0         1           sdc       112           tot       1.00000  
     121  cha123                 123  1699861.91360     -19.47101      32.16942             0       121     s19250s32250e         0         0         0         1           sdc       114           tot       1.00000  
     122  cha124                 124  1109151.74400     -20.70540      34.54678             0       122     s20750s34750e         0         0         0         1           sdc       102           tot       1.00000  
     123  cha125                 125  1217640.75520     -20.68541      30.48858             0       123     s20750s30250e         0         0         0         1           sdc       108           tot       1.00000  
     124  cha126                 126  897335.80800     -19.95267      32.25701             0       124     s19750s32250e         0         0         0         1           sdc        70           tot       1.00000  
     125  cha127                 127  583655.42400     -21.77835      35.12235             0       125     s21750s35250e         0         0         0         1           sdc       104           tot       1.00000  
     126  cha128                 128  616090.26560     -20.66942      31.23516             0       126     s20750s31250e         0         0         0         1           sdc       109           tot       1.00000  
     127  cha129                 129  874278.60480     -20.28528      33.47905             0       127     s20250s33250e         0         0         0         1           sdc       120           tot       1.00000  
     128  cha130                 130  822486.11840     -19.65575      33.76267             0       128     s19750s33750e         0         0         0         1           sdc       118           tot       1.00000  
     129  cha131                 131  1189077.40160     -20.60144      30.43853             0       129     s20750s30250e         0         0         0         1           sdc       123           tot       1.00000  
     130  cha132                 132  1666222.59200     -19.42279      32.12771             0       130     s19250s32250e         0         0         0         1           sdc       121           tot       1.00000  
     131  cha133                 133  440494.64320     -18.51710      34.60934             0       131     s18750s34750e         0         0         0         1           sdc       115           tot       1.00000  
     132  cha134                 134  751421.90080     -19.61560      33.71679             0       132     s19750s33750e         0         0         0         1           sdc       128           tot       1.00000  
     133  cha135                 135  373904.25600     -18.47274      34.56346             0       133     s18250s34750e         0         0         0         1           sdc       131           tot       1.00000  
     134  cha136                 136  1043421.69600     -18.69848      33.67925             0       134     s18750s33750e         0         0         0         1           sdc       119           tot       1.00000  
     135  cha137                 137  750217.42080     -20.56944      30.43853             0       135     s20750s30250e         0         0         0         1           sdc       129           tot       1.00000  
     136  cha138                 138  989048.11520     -18.67431      33.62086             0       136     s18750s33750e         0         0         0         1           sdc       134           tot       1.00000  
     137  cha139                 139  568685.46560     -20.56544      31.23933             0       137     s20750s31250e         0         0         0         1           sdc       126           tot       1.00000  
     138  cha140                 140  686294.11840     -20.50543      30.70964             0       138     s20750s30750e         0         0         0         1           sdc       117           tot       1.00000  