fire.ops: written by SWAT+ editor v2.3.3 on 2024-08-26 08:41 
name                   chg_cn2     frac_burn  description
grass                  8.00000       1.00000  
tree_intense           8.00000       0.90000  
tree_low               6.00000       0.70000  
