hru.con: written by SWAT+ editor v2.3.3 on 2024-08-26 08:40 
      id  name                gis_id          area           lat           lon          elev       hru               wst       cst      ovfl      rule   out_tot  
       1  hru0001                  1   26412.47186     -17.63102      33.36374     724.43322         1     s17750s33250e         0         0         0         0  
       2  hru0002                  2      86.03411     -17.71352      33.34559     641.00000         2     s17750s33250e         0         0         0         0  
       3  hru0003                  3   16776.65151     -17.62865      33.26820     737.51795         3     s17750s33250e         0         0         0         0  
       4  hru0004                  4     688.27288     -17.71150      33.29241     679.00000         4     s17750s33250e         0         0         0         0  
       5  hru0005                  5   23315.24389     -17.75748      33.22606     680.98155         5     s17750s33250e         0         0         0         0  
       6  hru0006                  6    7571.00171     -17.73824      33.18709     785.90909         6     s17750s33250e         0         0         0         0  
       7  hru0007                  7    2494.98920     -17.79662      33.21298     645.58621         7     s17750s33250e         0         0         0         0  
       8  hru0008                  8     688.27288     -17.76305      33.19544     680.12500         8     s17750s33250e         0         0         0         0  
       9  hru0009                  9      86.03411     -17.72970      33.17041    1074.00000         9     s17750s33250e         0         0         0         0  
      10  hru0010                 10      86.03411     -17.80247      33.22046     657.00000        10     s17750s33250e         0         0         0         0  
      11  hru0011                 11   46544.45367     -17.77883      33.58567     641.86322        11     s17750s33750e         0         0         0         0  
      12  hru0012                 12   33123.13246     -17.82941      33.31878     645.12208        12     s17750s33250e         0         0         0         0  
      13  hru0013                 13    4043.60318     -18.00109      33.27335     567.42553        13     s18250s33250e         0         0         0         0  
      14  hru0014                 14     430.17055     -17.86068      33.27552     623.00000        14     s17750s33250e         0         0         0         0  
      15  hru0015                 15   19099.57249     -17.77155      33.74384     593.86937        15     s17750s33750e         0         0         0         0  
      16  hru0016                 16     602.23877     -17.73432      33.71619     616.71429        16     s17750s33750e         0         0         0         0  
      17  hru0017                 17   23487.31211     -17.86075      33.14447     755.78755        17     s17750s33250e         0         0         0         0  
      18  hru0018                 18     516.20466     -17.90083      33.19544     611.50000        18     s17750s33250e         0         0         0         0  
      19  hru0019                 19    2064.81865     -17.91935      33.11828    1042.95833        19     s17750s33250e         0         0         0         0  
      20  hru0020                 20     344.13644     -17.93787      33.19544     564.75000        20     s17750s33250e         0         0         0         0  
      21  hru0021                 21   25638.16487     -17.90254      33.47636     650.51678        21     s17750s33250e         0         0         0         0  
      22  hru0022                 22      86.03411     -18.02877      33.55413     731.00000        22     s18250s33750e         0         0         0         0  
      23  hru0023                 23   72956.92553     -18.04605      33.67775     571.43160        23     s18250s33750e         0         0         0         0  
      24  hru0024                 24   19271.64071     -18.25740      33.74524     521.31250        24     s18250s33750e         0         0         0         0  
      25  hru0025                 25   21078.35702     -18.24236      33.83651     539.68571        25     s18250s33750e         0         0         0         0  
      26  hru0026                 26   19787.84537     -18.29387      33.75770     530.58261        26     s18250s33750e         0         0         0         0  
      27  hru0027                 27      86.03411     -18.29524      33.82106     480.00000        27     s18250s33750e         0         0         0         0  
      28  hru0028                 28   16518.54918     -17.93139      33.36140     632.24479        28     s17750s33250e         0         0         0         0  
      29  hru0029                 29    4043.60318     -18.02980      33.31098     567.68085        29     s18250s33250e         0         0         0         0  
      30  hru0030                 30   36908.63332     -17.94631      33.80189     546.25408        30     s17750s33750e         0         0         0         0  
      31  hru0031                 31     946.37521     -18.01995      33.92116     511.90909        31     s18250s33750e         0         0         0         0  
      32  hru0032                 32      86.03411     -18.01261      33.82106     543.00000        32     s18250s33750e         0         0         0         0  
      33  hru0033                 33   12560.98010     -17.98843      33.45266     611.88356        33     s17750s33250e         0         0         0         0  
      34  hru0034                 34     344.13644     -18.05300      33.49156     594.75000        34     s18250s33250e         0         0         0         0  
      35  hru0035                 35     172.06822     -17.94393      33.24549     600.50000        35     s17750s33250e         0         0         0         0  
      36  hru0036                 36    9721.85446     -18.00739      33.19374     601.02655        36     s18250s33250e         0         0         0         0  
      37  hru0037                 37    5850.31950     -18.04184      33.20562     571.98529        37     s18250s33250e         0         0         0         0  
      38  hru0038                 38    3355.33030     -18.01924      33.12935    1086.66667        38     s18250s33250e         0         0         0         0  
      39  hru0039                 39    1204.47754     -18.05358      33.16445     654.07143        39     s18250s33250e         0         0         0         0  
      40  hru0040                 40     344.13644     -18.06916      33.14122     891.00000        40     s18250s33250e         0         0         0         0  
      41  hru0041                 41   16776.65151     -18.11845      34.09500     418.62051        41     s18250s34250e         0         0         0         0  
      42  hru0042                 42   15228.03752     -18.08805      34.04581     454.72881        42     s18250s34250e         0         0         0         0  
      43  hru0043                 43    1892.75043     -18.02730      33.09951    1353.72727        43     s18250s33250e         0         0         0         0  
      44  hru0044                 44   28821.42695     -18.22567      33.19935     652.02687        44     s18250s33250e         0         0         0         0  
      45  hru0045                 45    6882.72882     -18.15234      33.12203     817.40000        45     s18250s33250e         0         0         0         0  
      46  hru0046                 46    6366.52416     -18.23186      33.20457     586.31081        46     s18250s33250e         0         0         0         0  
      47  hru0047                 47      86.03411     -18.32752      33.20378     551.00000        47     s18250s33250e         0         0         0         0  
      48  hru0048                 48    4301.70551     -18.02651      33.40898     604.68000        48     s18250s33250e         0         0         0         0  
      49  hru0049                 49   94207.35077     -18.27341      33.47131     533.19726        49     s18250s33250e         0         0         0         0  
      50  hru0050                 50     430.17055     -18.35657      33.57581     549.40000        50     s18250s33750e         0         0         0         0  
      51  hru0051                 51    8259.27459     -18.05334      33.82505     539.39583        51     s18250s33750e         0         0         0         0  
      52  hru0052                 52    7398.93349     -18.07864      33.81718     546.75581        52     s18250s33750e         0         0         0         0  
      53  hru0053                 53     688.27288     -18.02675      33.36540     616.50000        53     s18250s33250e         0         0         0         0  
      54  hru0054                 54   25638.16487     -18.14602      33.30080     561.46309        54     s18250s33250e         0         0         0         0  
      55  hru0055                 55    8173.24048     -18.13114      33.24329     556.76842        55     s18250s33250e         0         0         0         0  
      56  hru0056                 56      86.03411     -18.08531      33.15373     783.00000        56     s18250s33250e         0         0         0         0  
      57  hru0057                 57     344.13644     -18.10147      33.22880     586.00000        57     s18250s33250e         0         0         0         0  
      58  hru0058                 58    2581.02331     -18.13081      33.03945    1301.06667        58     s18250s33250e         0         0         0         0  
      59  hru0059                 59   15055.96930     -18.28827      33.12050     778.89714        59     s18250s33250e         0         0         0         0  
      60  hru0060                 60   16346.48096     -18.18396      33.08331     779.00526        60     s18250s33250e         0         0         0         0  
      61  hru0061                 61     258.10233     -18.16876      33.05085     951.66667        61     s18250s33250e         0         0         0         0  
      62  hru0062                 62      86.03411     -18.24681      33.05363    1053.00000        62     s18250s33250e         0         0         0         0  
      63  hru0063                 63     516.20466     -18.31945      33.12453     618.66667        63     s18250s33250e         0         0         0         0  
      64  hru0064                 64    1032.40932     -18.04694      33.55621     609.75000        64     s18250s33750e         0         0         0         0  
      65  hru0065                 65   57642.85390     -18.28678      33.65944     528.51642        65     s18250s33750e         0         0         0         0  
      66  hru0066                 66   31660.55259     -18.34361      33.66991     530.52989        66     s18250s33750e         0         0         0         0  
      67  hru0067                 67      86.03411     -18.52113      33.85442     437.00000        67     s18750s33750e         0         0         0         0  
      68  hru0068                 68   24777.82376     -18.16512      33.94870     490.87153        68     s18250s33750e         0         0         0         0  
      69  hru0069                 69   19099.57249     -18.13544      33.94783     480.75676        69     s18250s33750e         0         0         0         0  
      70  hru0070                 70     774.30699     -18.16159      34.03145     410.00000        70     s18250s34250e         0         0         0         0  
      71  hru0071                 71     344.13644     -18.05098      35.37885     211.25000        71     s18250s35250e         0         0         0         0  
      72  hru0072                 72   17809.06083     -18.12550      35.50614     116.85990        72     s18250s35750e         0         0         0         0  
      73  hru0073                 73    1548.61399     -18.08262      35.36843     210.88889        73     s18250s35250e         0         0         0         0  
      74  hru0074                 74    2236.88687     -18.10582      35.45313     126.50000        74     s18250s35250e         0         0         0         0  
      75  hru0075                 75     172.06822     -18.07320      35.36425     207.50000        75     s18250s35250e         0         0         0         0  
      76  hru0076                 76     430.17055     -18.13216      35.47770     106.00000        76     s18250s35250e         0         0         0         0  
      77  hru0077                 77    1548.61399     -18.06826      33.25522     542.16667        77     s18250s33250e         0         0         0         0  
      78  hru0078                 78     430.17055     -18.07239      33.24215     553.20000        78     s18250s33250e         0         0         0         0  
      79  hru0079                 79      86.03411     -18.09339      33.22880     590.00000        79     s18250s33250e         0         0         0         0  
      80  hru0080                 80    2839.12564     -18.13622      31.84612    1561.48485        80     s18250s31750e         0         0         0         0  
      81  hru0081                 81    3011.19386     -18.18014      31.94896    1569.08571        81     s18250s31750e         0         0         0         0  
      82  hru0082                 82    6108.42183     -18.14765      31.86160    1518.63380        82     s18250s31750e         0         0         0         0  
      83  hru0083                 83    3441.36441     -18.14063      31.92230    1551.67500        83     s18250s31750e         0         0         0         0  
      84  hru0084                 84    1548.61399     -18.18715      31.86912    1582.72222        84     s18250s31750e         0         0         0         0  
      85  hru0085                 85    2064.81865     -18.21115      31.92021    1580.70833        85     s18250s31750e         0         0         0         0  
      86  hru0086                 86    1892.75043     -18.18259      31.86798    1538.18182        86     s18250s31750e         0         0         0         0  
      87  hru0087                 87    1204.47754     -18.21625      31.93704    1594.64286        87     s18250s31750e         0         0         0         0  
      88  hru0088                 88     258.10233     -18.14992      31.84966    1534.33333        88     s18250s31750e         0         0         0         0  
      89  hru0089                 89     516.20466     -18.17011      31.96227    1572.50000        89     s18250s31750e         0         0         0         0  
      90  hru0090                 90      86.03411     -18.15800      31.81073    1576.00000        90     s18250s31750e         0         0         0         0  
      91  hru0091                 91   20045.94770     -18.19625      35.49428     111.69957        91     s18250s35250e         0         0         0         0  
      92  hru0092                 92    2581.02331     -18.16526      35.46547     126.20000        92     s18250s35250e         0         0         0         0  
      93  hru0093                 93     258.10233     -18.13915      35.45879     111.00000        93     s18250s35250e         0         0         0         0  
      94  hru0094                 94    2150.85276     -18.17673      31.74700    1597.64000        94     s18250s31750e         0         0         0         0  
      95  hru0095                 95    5506.18306     -18.20808      31.77476    1533.93750        95     s18250s31750e         0         0         0         0  
      96  hru0096                 96    2408.95509     -18.19404      31.79941    1524.57143        96     s18250s31750e         0         0         0         0  
      97  hru0097                 97    1634.64810     -18.18477      31.76156    1568.52632        97     s18250s31750e         0         0         0         0  
      98  hru0098                 98    1720.68221     -18.19716      31.77528    1549.30000        98     s18250s31750e         0         0         0         0  
      99  hru0099                 99   14969.93519     -18.19229      35.37614     192.01724        99     s18250s35250e         0         0         0         0  
     100  hru0100                100    1290.51165     -18.23174      35.46324     115.00000       100     s18250s35250e         0         0         0         0  
     101  hru0101                101    5850.31950     -18.25037      31.52846    1581.23529       101     s18250s31750e         0         0         0         0  
     102  hru0102                102    4215.67140     -18.25455      31.51673    1560.46939       102     s18250s31750e         0         0         0         0  
     103  hru0103                103    3355.33030     -18.23770      31.52433    1594.76923       103     s18250s31750e         0         0         0         0  
     104  hru0104                104     258.10233     -18.19029      31.55214    1668.66667       104     s18250s31750e         0         0         0         0  
     105  hru0105                105     430.17055     -18.21774      31.48541    1609.80000       105     s18250s31250e         0         0         0         0  
     106  hru0106                106     430.17055     -18.24196      31.51210    1586.20000       106     s18250s31750e         0         0         0         0  
     107  hru0107                107    5764.28539     -18.23078      31.63892    1594.82090       107     s18250s31750e         0         0         0         0  
     108  hru0108                108   17809.06083     -18.32132      31.64071    1499.90338       108     s18250s31750e         0         0         0         0  
     109  hru0109                109   12733.04832     -18.39202      31.64931    1425.00000       109     s18250s31750e         0         0         0         0  
     110  hru0110                110    6194.45594     -18.35699      31.65977    1463.88889       110     s18250s31750e         0         0         0         0  
     111  hru0111                111     946.37521     -18.42654      31.63783    1397.81818       111     s18250s31750e         0         0         0         0  
     112  hru0112                112     172.06822     -18.31945      31.62304    1447.50000       112     s18250s31750e         0         0         0         0  
     113  hru0113                113      86.03411     -18.36787      31.61053    1430.00000       113     s18250s31750e         0         0         0         0  
     114  hru0114                114   11184.43434     -18.27736      32.99440     985.39231       114     s18250s32750e         0         0         0         0  
     115  hru0115                115    1720.68221     -18.24317      32.97730    1181.30000       115     s18250s32750e         0         0         0         0  
     116  hru0116                116    4473.77374     -18.26714      32.98978     999.21154       116     s18250s32750e         0         0         0         0  
     117  hru0117                117     430.17055     -18.25972      32.97689    1154.80000       117     s18250s32750e         0         0         0         0  
     118  hru0118                118      86.03411     -18.31945      32.98690     682.00000       118     s18250s32750e         0         0         0         0  
     119  hru0119                119     774.30699     -18.18491      34.06945     422.11111       119     s18250s34250e         0         0         0         0  
     120  hru0120                120    4989.97840     -18.24903      34.09532     428.86207       120     s18250s34250e         0         0         0         0  
     121  hru0121                121     172.06822     -18.25488      34.08799     594.50000       121     s18250s34250e         0         0         0         0  
     122  hru0122                122   29853.83627     -18.28042      34.30848     238.61383       122     s18250s34250e         0         0         0         0  
     123  hru0123                123    4559.80785     -18.32021      34.40041     188.81132       123     s18250s34250e         0         0         0         0  
     124  hru0124                124    1978.78454     -18.32085      34.37197     151.52174       124     s18250s34250e         0         0         0         0  
     125  hru0125                125     258.10233     -18.33559      34.39385     167.66667       125     s18250s34250e         0         0         0         0  
     126  hru0126                126      86.03411     -18.27909      34.37995     166.00000       126     s18250s34250e         0         0         0         0  
     127  hru0127                127    7743.06993     -18.26959      31.44416    1546.67778       127     s18250s31250e         0         0         0         0  
     128  hru0128                128    1462.57987     -18.26153      31.44272    1561.47059       128     s18250s31250e         0         0         0         0  
     129  hru0129                129    1548.61399     -18.24905      31.44416    1573.66667       129     s18250s31250e         0         0         0         0  
     130  hru0130                130    3785.50085     -18.26809      31.44673    1549.22727       130     s18250s31250e         0         0         0         0  
     131  hru0131                131    1462.57987     -18.26248      31.41573    1562.88235       131     s18250s31250e         0         0         0         0  
     132  hru0132                132      86.03411     -18.31945      31.46872    1463.00000       132     s18250s31250e         0         0         0         0  
     133  hru0133                133   10410.12735     -18.24767      35.36164     199.22314       133     s18250s35250e         0         0         0         0  
     134  hru0134                134    4817.91018     -18.25070      35.30706     252.64286       134     s18250s35250e         0         0         0         0  
     135  hru0135                135    1634.64810     -18.25615      31.98415    1601.00000       135     s18250s31750e         0         0         0         0  
     136  hru0136                136     516.20466     -18.30465      31.98729    1550.66667       136     s18250s31750e         0         0         0         0  
     137  hru0137                137    1376.54576     -18.25387      31.96140    1586.25000       137     s18250s31750e         0         0         0         0  
     138  hru0138                138    2494.98920     -18.31694      31.92147    1482.79310       138     s18250s31750e         0         0         0         0  
     139  hru0139                139    1634.64810     -18.25360      31.94639    1583.57895       139     s18250s31750e         0         0         0         0  
     140  hru0140                140     860.34110     -18.30976      31.93919    1506.80000       140     s18250s31750e         0         0         0         0  
     141  hru0141                141     860.34110     -18.25488      31.94837    1627.00000       141     s18250s31750e         0         0         0         0  
     142  hru0142                142    1634.64810     -18.27570      31.94946    1561.52632       142     s18250s31750e         0         0         0         0  
     143  hru0143                143    2322.92098     -18.31437      31.91979    1487.00000       143     s18250s31750e         0         0         0         0  
     144  hru0144                144      86.03411     -18.28717      31.92751    1520.00000       144     s18250s31750e         0         0         0         0  
     145  hru0145                145    1032.40932     -18.22797      34.51967     125.58333       145     s18250s34750e         0         0         0         0  
     146  hru0146                146   29767.80216     -18.31789      34.52737     115.58092       146     s18250s34750e         0         0         0         0  
     147  hru0147                147      86.03411     -18.36787      34.55512      75.00000       147     s18250s34750e         0         0         0         0  
     148  hru0148                148    3183.26208     -18.24441      35.63772      52.94595       148     s18250s35750e         0         0         0         0  
     149  hru0149                149     430.17055     -18.25004      35.62952      51.80000       149     s18250s35750e         0         0         0         0  
     150  hru0150                150   14367.69642     -18.28112      33.98504     491.04790       150     s18250s33750e         0         0         0         0  
     151  hru0151                151    8001.17226     -18.30088      34.04440     616.48387       151     s18250s34250e         0         0         0         0  
     152  hru0152                152    2408.95509     -18.34337      34.07160    1340.78571       152     s18250s34250e         0         0         0         0  
     153  hru0153                153     602.23877     -18.35749      34.07607    1610.28571       153     s18250s34250e         0         0         0         0  
     154  hru0154                154     344.13644     -18.34769      34.05879    1175.00000       154     s18250s34250e         0         0         0         0  
     155  hru0155                155     344.13644     -18.35980      34.04211    1183.25000       155     s18250s34250e         0         0         0         0  
     156  hru0156                156   28133.15407     -18.39886      34.23773     266.39755       156     s18250s34250e         0         0         0         0  
     157  hru0157                157   11012.36612     -18.39825      34.15368     693.98437       157     s18250s34250e         0         0         0         0  
     158  hru0158                158    3957.56907     -18.38260      34.14058     764.76087       158     s18250s34250e         0         0         0         0  
     159  hru0159                159     688.27288     -18.49089      34.34554     107.37500       159     s18250s34250e         0         0         0         0  
     160  hru0160                160    6452.55827     -18.40659      34.11502    1211.37333       160     s18250s34250e         0         0         0         0  
     161  hru0161                161     774.30699     -18.43779      34.13618     829.00000       161     s18250s34250e         0         0         0         0  
     162  hru0162                162     430.17055     -18.47435      34.29152     179.00000       162     s18250s34250e         0         0         0         0  
     163  hru0163                163    2753.09153     -18.31768      31.92021    1526.90625       163     s18250s31750e         0         0         0         0  
     164  hru0164                164    3785.50085     -18.30147      31.77907    1512.36364       164     s18250s31750e         0         0         0         0  
     165  hru0165                165    9635.82035     -18.33235      31.81453    1475.65179       165     s18250s31750e         0         0         0         0  
     166  hru0166                166   11614.60489     -18.34712      31.84113    1457.34815       166     s18250s31750e         0         0         0         0  
     167  hru0167                167      86.03411     -18.36787      31.90249    1432.00000       167     s18250s31750e         0         0         0         0  
     168  hru0168                168    1462.57987     -18.25868      31.80533    1517.64706       168     s18250s31750e         0         0         0         0  
     169  hru0169                169    5678.25128     -18.26919      31.84030    1481.24242       169     s18250s31750e         0         0         0         0  
     170  hru0170                170     172.06822     -18.26699      31.89415    1569.50000       170     s18250s31750e         0         0         0         0  
     171  hru0171                171    1118.44343     -18.25053      31.85436    1530.76923       171     s18250s31750e         0         0         0         0  
     172  hru0172                172     860.34110     -18.24923      31.90082    1604.40000       172     s18250s31750e         0         0         0         0  
     173  hru0173                173    3785.50085     -18.29193      31.84504    1475.04545       173     s18250s31750e         0         0         0         0  
     174  hru0174                174     344.13644     -18.27102      31.90040    1613.25000       174     s18250s31750e         0         0         0         0  
     175  hru0175                175      86.03411     -18.27102      31.79405    1518.00000       175     s18250s31750e         0         0         0         0  
     176  hru0176                176   22110.76635     -18.33612      35.67643      35.45136       176     s18250s35750e         0         0         0         0  
     177  hru0177                177    2408.95509     -18.35519      35.71520      19.82143       177     s18250s35750e         0         0         0         0  
     178  hru0178                178    5506.18306     -18.35627      35.83008      13.78125       178     s18250s35750e         0         0         0         0  
     179  hru0179                179    2753.09153     -18.38425      35.89004      12.18750       179     s18250s35750e         0         0         0         0  
     180  hru0180                180   39059.48607     -18.42738      35.78642      12.67621       180     s18250s35750e         0         0         0         0  
     181  hru0181                181   14969.93519     -18.33828      34.26403     260.52874       181     s18250s34250e         0         0         0         0  
     182  hru0182                182     516.20466     -18.26295      31.56743    1593.66667       182     s18250s31750e         0         0         0         0  