initial.aqu: written by SWAT+ editor v2.3.3 on 2024-08-26 08:41 
name                       org_min              pest              path              hmet              salt  description       
initaqu1                   no_init              null              null              null              null  null              
