ls_unit.def: written by SWAT+ editor v2.3.3 on 2024-08-26 08:41 
985
      id              name          area  elem_tot  elements  
       1           rtu0010   11270.46845         2      4341     -4348  
       2           rtu0020     946.37521         2      4440     -4442  
       3           rtu0030   41038.27061         2      4352     -4365  
       4           rtu0040   24949.89199         2      4397     -4402  
       5           rtu0050   12733.04832         2      4433     -4439  
       6           rtu0060    8689.44514         2      4536     -4540  
       7           rtu0070    2236.88687         2      4644     -4645  
       8           rtu0080   19099.57249         2      4697     -4701  
       9           rtu0090   19357.67482         2      4733     -4737  
      10           rtu0100   75882.08528         2      4632     -4642  
      11           rtu0110   32090.72314         2      4795     -4800  
      12           rtu0120   60912.15009         2      4846     -4851  
      13           rtu0130   28907.46106         2      4743     -4751  
      14           rtu0140    4903.94429         2      4932     -4933  
      15           rtu0150    3011.19386         2      4980     -4981  
      16           rtu0160   16174.41274         2      4820     -4827  
      17           rtu0170    1720.68221         2      4990     -4991  
      18           rtu0180    4215.67140         2      4927     -4931  
      19           rtu0190   70892.10688         2      4946     -4958  
      20           rtu0200   30714.17737         2      4863     -4868  
      21           rtu0210   11442.53667         2      4886     -4889  
      22           rtu0220   32176.75725         2      4805     -4812  
      23           rtu0230    4387.73962         2      4788     -4794  
      24           rtu0240    9463.75213         2      4727     -4732  
      25           rtu0250   43877.39625         2      4605     -4616  
      26           rtu0260   27961.08585         2      4780     -4787  
      27           rtu0270   16260.44685         2      4585     -4598  
      28           rtu0280    6882.72882         2      4511     -4514  
      29           rtu0290     516.20466         2      4493     -4497  
      30           rtu0300   26412.47186         2      4752     -4757  
      31           rtu0310     602.23877         1      4779  
      32           rtu0320   17120.78795         2      4661     -4665  
      33           rtu0330    1032.40932         2      4621     -4624  
      34           rtu0340   30714.17737         2      4266     -4279  
      35           rtu0350   33295.20068         2      4460     -4469  
      36           rtu0360     516.20466         2      4712     -4714  
      37           rtu0370   14023.55998         2      2578     -2583  
      38           rtu0380    1032.40932         1      2565  
      39           rtu0390   10668.22968         2      2059     -2067  
      40           rtu0400    2322.92098         2      2538     -2539  
      41           rtu0410    9033.58158         2      4563     -4572  
      42           rtu0420   34155.54179         2      3984     -3994  
      43           rtu0430    9033.58158         2      4530     -4534  
      44           rtu0440   12560.98010         2      3917     -3925  
      45           rtu0450    5076.01251         2      4489     -4492  
      46           rtu0460   36134.32632         2      1805     -1815  
      47           rtu0470   13507.35532         2      3768     -3778  
      48           rtu0480   34929.84878         2      2418     -2427  
      49           rtu0490    1720.68221         2      3708     -3713  
      50           rtu0500   24433.68732         2      4545     -4552  
      51           rtu0510   12560.98010         2      2715     -2721  
      52           rtu0520   43877.39625         2      1539     -1544  
      53           rtu0530    8689.44514         2      4477     -4480  
      54           rtu0540    2667.05742         2      1489     -1491  
      55           rtu0550   14797.86697         2      2613     -2624  
      56           rtu0560    2408.95509         2      1421     -1423  
      57           rtu0570   12647.01421         2      4573     -4576  
      58           rtu0580     258.10233         1      1397  
      59           rtu0590    3355.33030         2      4541     -4544  
      60           rtu0600   18583.36782         2      3325     -3331  
      61           rtu0610    1462.57987         2      3289     -3293  
      62           rtu0620   22971.10745         2      2643     -2652  
      63           rtu0630   15916.31040         2      4428     -4432  
      64           rtu0640    3957.56907         2      3191     -3195  
      65           rtu0650     430.17055         2      3177     -3178  
      66           rtu0660    4559.80785         2      4332     -4336  
      67           rtu0670   10238.05912         2      2433     -2442  
      68           rtu0680    1290.51165         2      2474     -2476  
      69           rtu0690   20648.18647         2      4171     -4175  
      70           rtu0700   23659.38033         2      2845     -2857  
      71           rtu0710   44565.66913         2      1156     -1171  
      72           rtu0720    2408.95509         2      2781     -2784  
      73           rtu0730    5248.08073         2      4235     -4238  
      74           rtu0740    7312.89937         2      1262     -1265  
      75           rtu0750    1290.51165         2      2671     -2674  
      76           rtu0760     860.34110         2      4233     -4234  
      77           rtu0770   13421.32121         2      4443     -4446  
      78           rtu0780   10926.33201         2      1002     -1004  
      79           rtu0790    7571.00171         2      4366     -4370  
      80           rtu0800   14883.90108         2      1098     -1099  
      81           rtu0810   57040.61512         2      2462     -2470  
      82           rtu0820     774.30699         1      1093  
      83           rtu0830    4903.94429         2      4311     -4317  
      84           rtu0840    6280.49005         2      4179     -4183  
      85           rtu0850   14969.93519         2      4879     -4885  
      86           rtu0860    2494.98920         2      2838     -2839  
      87           rtu0870   37596.90620         2      2404     -2417  
      88           rtu0880    5506.18306         2      4188     -4192  
      89           rtu0890   23143.17567         2      1021     -1024  
      90           rtu0900   10840.29790         2      2912     -2913  
      91           rtu0910   25724.19898         2       878      -882  
      92           rtu0920    4559.80785         2       991      -992  
      93           rtu0930    5678.25128         2      4184     -4187  
      94           rtu0940   18841.47015         2      4939     -4945  
      95           rtu0950   24003.51677         2      4004     -4011  
      96           rtu0960   22368.86868         2      2960     -2964  
      97           rtu0970   16518.54918         2      3981     -3983  
      98           rtu0980   27014.71063         2      2146     -2150  
      99           rtu0990    5420.14895         2      3751     -3755  
     100           rtu1000    9721.85446         2      4074     -4078  
     101           rtu1010   21078.35702         2      4067     -4071  
     102           rtu1020    6452.55827         2      3978     -3980  
     103           rtu1030    2667.05742         2      3891     -3894  
     104           rtu1040    4817.91018         2      2383     -2388  
     105           rtu1050   33553.30301         2      5016     -5028  
     106           rtu1060   26240.40364         2      3111     -3113  
     107           rtu1070   26670.57419         2      1933     -1940  
     108           rtu1080   37941.04264         2       703      -704  
     109           rtu1090   13765.45765         2      4048     -4052  
     110           rtu1100    5678.25128         2      4031     -4033  
     111           rtu1110    2064.81865         1       819  
     112           rtu1120    5764.28539         2      3669     -3670  
     113           rtu1130    4989.97840         2      2334     -2335  
     114           rtu1140   11356.50256         2      3235     -3238  
     115           rtu1150   18411.29960         2      1899     -1903  
     116           rtu1160    1376.54576         2      1986     -1987  
     117           rtu1170   85948.07618         2       459      -472  
     118           rtu1180     774.30699         1      2361  
     119           rtu1190   16174.41274         2      3660     -3668  
     120           rtu1200   22540.93690         2      2086     -2087  
     121           rtu1210   28391.25640         1       544  
     122           rtu1220   13335.28710         2      3081     -3083  
     123           rtu1230    6452.55827         2      1894     -1898  
     124           rtu1240   31488.48437         2      3904     -3906  
     125           rtu1250   28133.15407         2      3836     -3845  
     126           rtu1260   28133.15407         2      2557     -2564  
     127           rtu1270   33037.09835         2      5071     -5078  
     128           rtu1280   31574.51848         2      3875     -3881  
     129           rtu1290    2150.85276         2      3355     -3357  
     130           rtu1300    5162.04662         1      2107  
     131           rtu1310    2925.15975         2      3823     -3826  
     132           rtu1320   18497.33371         2      1665     -1668  
     133           rtu1330   35704.15577         2       317      -323  
     134           rtu1340    2581.02331         1      2113  
     135           rtu1350     258.10233         1       429  
     136           rtu1360   15658.20807         1       619  
     137           rtu1370    3871.53496         2      3756     -3760  
     138           rtu1380     946.37521         1       656  
     139           rtu1390   15314.07163         2      3615     -3621  
     140           rtu1400   25380.06254         2      3448     -3457  
     141           rtu1410   18067.16316         2      2504     -2513  
     142           rtu1420    5936.35361         2      2094     -2096  
     143           rtu1430    9893.92268         2      1662     -1664  
     144           rtu1440   11958.74133         2      4481     -4488  
     145           rtu1450   26584.54008         2      5099     -5108  
     146           rtu1460    3011.19386         2      3488     -3493  
     147           rtu1470    2667.05742         2      1635     -1638  
     148           rtu1480   14625.79875         2      3427     -3429  
     149           rtu1490    6538.59238         2      2325     -2327  
     150           rtu1500   10926.33201         2       645      -646  
     151           rtu1510   51362.36385         2      2031     -2046  
     152           rtu1520     258.10233         2      2029     -2030  
     153           rtu1530    5850.31950         2      1545     -1546  
     154           rtu1540   32262.79136         2      3947     -3950  
     155           rtu1550    9549.78624         2      4337     -4340  
     156           rtu1560     774.30699         2      1990     -1992  
     157           rtu1570    7398.93349         2      3396     -3399  
     158           rtu1580    3957.56907         2      2457     -2461  
     159           rtu1590    1376.54576         2      4142     -4143  
     160           rtu1600   25380.06254         2      3470     -3480  
     161           rtu1610    6194.45594         2      1496     -1502  
     162           rtu1620   13507.35532         2       553      -554  
     163           rtu1630   20562.15236         2      5110     -5115  
     164           rtu1640   12905.11654         2      3416     -3418  
     165           rtu1650   19357.67482         2      2608     -2612  
     166           rtu1660   13249.25299         2       381      -386  
     167           rtu1670    2236.88687         1      3469  
     168           rtu1680    4043.60318         2      1479     -1483  
     169           rtu1690    6968.76293         2      1866     -1870  
     170           rtu1700   10410.12735         2       622      -623  
     171           rtu1710     860.34110         2      3432     -3433  
     172           rtu1720   33037.09835         2      2006     -2010  
     173           rtu1730    3269.29619         2      3458     -3460  
     174           rtu1740   11442.53667         2      3243     -3247  
     175           rtu1750   13077.18476         2      1731     -1736  
     176           rtu1760   18153.19727         2      3685     -3693  
     177           rtu1770   13679.42354         2      1362     -1368  
     178           rtu1780   57986.99034         2      3228     -3234  
     179           rtu1790    2753.09153         2      3422     -3426  
     180           rtu1800    2408.95509         1       589  
     181           rtu1810    7140.83115         2      1128     -1132  
     182           rtu1820   14539.76464         1      5133  
     183           rtu1830   31230.38204         2      4239     -4243  
     184           rtu1840   27789.01762         2      2572     -2577  
     185           rtu1850    4215.67140         2      3745     -3750  
     186           rtu1860   35360.01933         2      2108     -2112  
     187           rtu1870    9979.95679         2      4176     -4178  
     188           rtu1880    8517.37692         2      1251     -1255  
     189           rtu1890    2150.85276         1      2714  
     190           rtu1900   23745.41444         2      1871     -1873  
     191           rtu1910    7915.13815         2      1179     -1184  
     192           rtu1920   26584.54008         2       717      -719  
     193           rtu1930     602.23877         1      2768  
     194           rtu1940   27272.81296         2      1626     -1632  
     195           rtu1950     946.37521         2      1783     -1785  
     196           rtu1960    2236.88687         2      3638     -3641  
     197           rtu1970   10754.26379         2      2625     -2628  
     198           rtu1980   35704.15577         2       815      -818  
     199           rtu1990   30456.07504         2      3023     -3028  
     200           rtu2000   34241.57590         2      3590     -3593  
     201           rtu2010   25552.13076         2      1198     -1206  
     202           rtu2020    9979.95679         2      1140     -1146  
     203           rtu2030   14281.66231         2      1660     -1661  
     204           rtu2040    7140.83115         2      2992     -2997  
     205           rtu2050   10840.29790         2       664      -665  
     206           rtu2060   16690.61740         2      2502     -2503  
     207           rtu2070   34069.50768         2      3208     -3217  
     208           rtu2080   14625.79875         2      2840     -2844  
     209           rtu2090   28047.11996         2      3310     -3324  
     210           rtu2110   21766.62990         2      2452     -2456  
     211           rtu2120    1032.40932         1       707  
     212           rtu2130   51448.39796         2       156      -162  
     213           rtu2140   26068.33542         1      5134  
     214           rtu2150   11528.57078         2       889      -892  
     215           rtu2160    5592.21717         2      1737     -1739  
     216           rtu2170   15658.20807         2      3346     -3353  
     217           rtu2180   59019.39966         2      4129     -4133  
     218           rtu2190    8173.24048         2      2896     -2899  
     219           rtu2200   24519.72143         2      1372     -1377  
     220           rtu2210   17895.09494         2       997     -1001  
     221           rtu2220   42328.78226         2      3790     -3794  
     222           rtu2230    3269.29619         2      3093     -3099  
     223           rtu2240    1634.64810         2      3520     -3523  
     224           rtu2250   11012.36612         2      2471     -2473  
     225           rtu2260     688.27288         2      1369     -1371  
     226           rtu2270    3871.53496         2      1152     -1155  
     227           rtu2280    3097.22797         2       981      -984  
     228           rtu2290   35790.18988         2       391      -393  
     229           rtu2300    5936.35361         2       119      -121  
     230           rtu2310      86.03411         1      2837  
     231           rtu2320   26154.36953         2      1529     -1532  
     232           rtu2330   20218.01592         2      3786     -3787  
     233           rtu2340   14109.59409         2      2967     -2974  
     234           rtu2350    3355.33030         2      3003     -3004  
     235           rtu2360   22971.10745         2       571      -572  
     236           rtu2370    5420.14895         2      2826     -2829  
     237           rtu2380   50588.05685         2       188      -191  
     238           rtu2390    4301.70551         2      3000     -3002  
     239           rtu2400   21336.45935         2      3657     -3659  
     240           rtu2410   69515.56112         2      3500     -3511  
     241           rtu2420    7571.00171         2       785      -789  
     242           rtu2430    6796.69471         2      2683     -2686  
     243           rtu2440   15055.96930         2      1563     -1564  
     244           rtu2450    9635.82035         2       473      -474  
     245           rtu2460   49469.61342         2      3724     -3732  
     246           rtu2470   11184.43434         2       457      -458  
     247           rtu2480   18841.47015         2       768      -772  
     248           rtu2490   13077.18476         2      4828     -4829  
     249           rtu2500    1032.40932         2      3581     -3583  
     250           rtu2510   28219.18818         2      1394     -1396  
     251           rtu2520   11356.50256         2      3942     -3946  
     252           rtu2530   22885.07334         2       685      -687  
     253           rtu2540   15916.31040         2      3862     -3867  
     254           rtu2550   41210.33883         2      3642     -3647  
     255           rtu2560    1806.71632         2      3718     -3720  
     256           rtu2570    6796.69471         2      3430     -3431  
     257           rtu2580   55922.17169         2      4415     -4422  
     258           rtu2590   28649.35873         2      3461     -3464  
     259           rtu2600   49641.68164         2      2584     -2595  
     260           rtu2610   10668.22968         2       613      -617  
     261           rtu2620   22626.97101         2      2212     -2216  
     262           rtu2630    8517.37692         1       438  
     263           rtu2640    6366.52416         1      4938  
     264           rtu2650    1548.61399         2      4676     -4677  
     265           rtu2660    4559.80785         2      4053     -4055  
     266           rtu2670   41296.37294         2      2745     -2750  
     267           rtu2680    4043.60318         2      1419     -1420  
     268           rtu2690   32865.03013         2      1062     -1073  
     269           rtu2700   40522.06595         2      1683     -1687  
     270           rtu2710     602.23877         2      1417     -1418  
     271           rtu2720     344.13644         2      4104     -4105  
     272           rtu2730     602.23877         1      2726  
     273           rtu2740   47662.89710         2      5140     -5145  
     274           rtu2750   20131.98181         2      3084     -3087  
     275           rtu2760    8517.37692         2      2998     -2999  
     276           rtu2770     172.06822         1      1118  
     277           rtu2780   92572.70268         2      1467     -1478  
     278           rtu2790   27358.84707         2       781      -784  
     279           rtu2800     172.06822         1      5151  
     280           rtu2810     430.17055         1      3868  
     281           rtu2820    7571.00171         2      3622     -3627  
     282           rtu2830     172.06822         1      2682  
     283           rtu2840   22368.86868         2      2519     -2523  
     284           rtu2850   12647.01421         2       985      -988  
     285           rtu2860    1032.40932         2      3383     -3384  
     286           rtu2870    8689.44514         2      1111     -1117  
     287           rtu2880    8861.51336         2      3362     -3367  
     288           rtu2890    6194.45594         2      2305     -2309  
     289           rtu2900    1548.61399         2      2600     -2603  
     290           rtu2910   10754.26379         2      1998     -2001  
     291           rtu2920   44651.70324         2        68       -70  
     292           rtu2930   16604.58329         1       354  
     293           rtu2940    1806.71632         2      3393     -3395  
     294           rtu2950     602.23877         2      1259     -1261  
     295           rtu2960    2667.05742         2       901      -903  
     296           rtu2970    4645.84196         2      4599     -4601  
     297           rtu2980   16518.54918         2      3882     -3889  
     298           rtu2990    1290.51165         2      1256     -1258  
     299           rtu3000   34929.84878         2        53       -57  
     300           rtu3010    1032.40932         2      4079     -4082  
     301           rtu3020    9893.92268         2       584      -588  
     302           rtu3030   11184.43434         1       485  
     303           rtu3040    3957.56907         2      1874     -1877  
     304           rtu3050  120447.75441         2      1639     -1648  
     305           rtu3060   21680.59579         2       919      -924  
     306           rtu3070    2064.81865         2        77       -79  
     307           rtu3080   18411.29960         2      4816     -4819  
     308           rtu3090   31488.48437         2      4772     -4778  
     309           rtu3100   19615.77715         2      2635     -2642  
     310           rtu3110    7140.83115         2      2018     -2023  
     311           rtu3120    2322.92098         2      2528     -2531  
     312           rtu3130     258.10233         1       751  
     313           rtu3140   31746.58670         2      2233     -2236  
     314           rtu3150   18669.40193         2       925      -929  
     315           rtu3160   12302.87777         2       777      -780  
     316           rtu3170      86.03411         1      4937  
     317           rtu3180    4731.87607         2      2861     -2867  
     318           rtu3190    4043.60318         2       820      -823  
     319           rtu3200   16948.71973         2      2789     -2792  
     320           rtu3210   38027.07675         2       475      -480  
     321           rtu3220   19271.64071         2      3377     -3379  
     322           rtu3230   21508.52757         2       515      -517  
     323           rtu3240    5162.04662         1      5039  
     324           rtu3250   39575.69073         2      2237     -2241  
     325           rtu3260    4215.67140         2      1699     -1703  
     326           rtu3270    9635.82035         2      4765     -4771  
     327           rtu3280   13077.18476         2      2448     -2451  
     328           rtu3290    8861.51336         2       757      -764  
     329           rtu3300    6538.59238         2       508      -512  
     330           rtu3310   13679.42354         2      4090     -4091  
     331           rtu3320   34757.78056         2      4016     -4021  
     332           rtu3330   14367.69642         1       397  
     333           rtu3340    2667.05742         2       746      -750  
     334           rtu3350     430.17055         1      5064  
     335           rtu3360    7054.79704         2       989      -990  
     336           rtu3380      86.03411         1      3354  
     337           rtu3390   29853.83627         2      2931     -2942  
     338           rtu3400    6194.45594         2      2100     -2101  
     339           rtu3410     258.10233         1      1030  
     340           rtu3420    7743.06993         2      4162     -4163  
     341           rtu3430    7054.79704         2      2687     -2691  
     342           rtu3440   14453.73053         2      4971     -4972  
     343           rtu3450   12647.01421         2      3926     -3928  
     344           rtu3460   29681.76805         2      3173     -3176  
     345           rtu3470   10840.29790         2      1977     -1979  
     346           rtu3480   35962.25810         2      1192     -1197  
     347           rtu3490   42931.02104         2      5135     -5136  
     348           rtu3500     344.13644         1      4643  
     349           rtu3510   34499.67823         2      4653     -4660  
     350           rtu3520   25466.09665         2      2141     -2145  
     351           rtu3530   10840.29790         1      1688  
     352           rtu3540   28305.22229         2      1402     -1408  
     353           rtu3550   28563.32462         2       590      -598  
     354           rtu3560   23831.44855         2       620      -621  
     355           rtu3570    9721.85446         2       524      -528  
     356           rtu3580   16862.68562         2      4801     -4804  
     357           rtu3590   71838.48209         2       176      -180  
     358           rtu3600   25552.13076         2      4110     -4115  
     359           rtu3610   34757.78056         2      3524     -3534  
     360           rtu3620   75107.77829         2      1005     -1015  
     361           rtu3630    5678.25128         2       651      -655  
     362           rtu3640    3785.50085         2      4558     -4562  
     363           rtu3650     516.20466         2      4092     -4093  
     364           rtu3660   78549.14270         2      3126     -3139  
     365           rtu3670    5850.31950         2      2946     -2954  
     366           rtu3680      86.03411         1      2121  
     367           rtu3690     516.20466         1      1596  
     368           rtu3700   42500.85048         2      1427     -1435  
     369           rtu3710    1548.61399         2      4580     -4582  
     370           rtu3720   36392.42865         2      3284     -3288  
     371           rtu3730   16174.41274         2       378      -380  
     372           rtu3740    4043.60318         2       452      -456  
     373           rtu3750    7140.83115         1       353  
     374           rtu3760   11614.60489         2      2166     -2168  
     375           rtu3770    4473.77374         2      1328     -1334  
     376           rtu3780    4215.67140         2       657      -663  
     377           rtu3790    1548.61399         2       647      -650  
     378           rtu3800    5076.01251         2       624      -626  
     379           rtu3810   18583.36782         2      4976     -4979  
     380           rtu3820    3871.53496         1      3846  
     381           rtu3830     430.17055         1      1335  
     382           rtu3840   12647.01421         1      3392  
     383           rtu3850    5506.18306         2      2764     -2767  
     384           rtu3870   37941.04264         2        30       -32  
     385           rtu3880   22799.03923         1      4535  
     386           rtu3890    4301.70551         2      3162     -3165  
     387           rtu3900   38457.24730         2      1677     -1682  
     388           rtu3910   10496.16146         2      1424     -1426  
     389           rtu3920    3957.56907         2       869      -872  
     390           rtu3930   20906.28880         2       342      -346  
     391           rtu3940   30628.14326         2      4934     -4936  
     392           rtu3950    7484.96760         2      4553     -4557  
     393           rtu3960   25294.02843         2      4012     -4015  
     394           rtu3970   26498.50597         2      2830     -2836  
     395           rtu3980    4043.60318         2      2477     -2481  
     396           rtu3990    5420.14895         1      2085  
     397           rtu4000   56180.27402         2      2188     -2192  
     398           rtu4010   16948.71973         2      1588     -1595  
     399           rtu4020     258.10233         1      1416  
     400           rtu4030    2322.92098         2       568      -570  
     401           rtu4040   20648.18647         2        35       -40  
     402           rtu4050   21508.52757         2      4193     -4197  
     403           rtu4060    3183.26208         2      2893     -2895  
     404           rtu4070    3441.36441         2      2242     -2245  
     405           rtu4080     430.17055         2      1619     -1621  
     406           rtu4090   15658.20807         2      1266     -1273  
     407           rtu4100   13335.28710         2       899      -900  
     408           rtu4110    2839.12564         2      4408     -4412  
     409           rtu4120     430.17055         2      3834     -3835  
     410           rtu4130     860.34110         1      4034  
     411           rtu4140   22282.83457         2       824      -825  
     412           rtu4150    5506.18306         2       904      -906  
     413           rtu4160   18497.33371         2      3779     -3784  
     414           rtu4170   14453.73053         2       387      -390  
     415           rtu4180   10926.33201         2       605      -612  