ls_unit.ele: written by SWAT+ editor v2.3.3 on 2024-08-26 08:41 
      id  name                   obj_typ  obj_typ_no      bsn_frac      sub_frac      reg_frac  
       1  hru0001                    hru           1     1.1842E-3       0.99675       0.00000  
       2  hru0002                    hru           2     3.8575E-6       0.00325       0.00000  
       3  hru0003                    hru           3     7.5221E-4       0.96059       0.00000  
       4  hru0004                    hru           4     3.0860E-5       0.03941       0.00000  
       5  hru0005                    hru           5     1.0454E-3       0.68090       0.00000  
       6  hru0006                    hru           6     3.3946E-4       0.22111       0.00000  
       7  hru0007                    hru           7     1.1187E-4       0.07286       0.00000  
       8  hru0008                    hru           8     3.0860E-5       0.02010       0.00000  
       9  hru0009                    hru           9     3.8575E-6       0.00251       0.00000  
      10  hru0010                    hru          10     3.8575E-6       0.00251       0.00000  
      11  hru0011                    hru          11     2.0869E-3       1.00000       0.00000  
      12  hru0012                    hru          12     1.4851E-3       0.88101       0.00000  
      13  hru0013                    hru          13     1.8130E-4       0.10755       0.00000  
      14  hru0014                    hru          14     1.9287E-5       0.01144       0.00000  
      15  hru0015                    hru          15     8.5636E-4       0.96943       0.00000  
      16  hru0016                    hru          16     2.7002E-5       0.03057       0.00000  
      17  hru0017                    hru          17     1.0531E-3       0.88925       0.00000  
      18  hru0018                    hru          18     2.3145E-5       0.01954       0.00000  
      19  hru0019                    hru          19     9.2580E-5       0.07818       0.00000  
      20  hru0020                    hru          20     1.5430E-5       0.01303       0.00000  
      21  hru0021                    hru          21     1.1495E-3       0.99666       0.00000  
      22  hru0022                    hru          22     3.8575E-6       0.00334       0.00000  
      23  hru0023                    hru          23     3.2712E-3       0.54780       0.00000  
      24  hru0024                    hru          24     8.6408E-4       0.14470       0.00000  
      25  hru0025                    hru          25     9.4508E-4       0.15827       0.00000  
      26  hru0026                    hru          26     8.8722E-4       0.14858       0.00000  
      27  hru0027                    hru          27     3.8575E-6       0.00065       0.00000  
      28  hru0028                    hru          28     7.4064E-4       0.80335       0.00000  
      29  hru0029                    hru          29     1.8130E-4       0.19665       0.00000  
      30  hru0030                    hru          30     1.6549E-3       0.97279       0.00000  
      31  hru0031                    hru          31     4.2432E-5       0.02494       0.00000  
      32  hru0032                    hru          32     3.8575E-6       0.00227       0.00000  
      33  hru0033                    hru          33     5.6319E-4       0.97333       0.00000  
      34  hru0034                    hru          34     1.5430E-5       0.02667       0.00000  
      35  hru0035                    hru          35     7.7150E-6       0.00833       0.00000  
      36  hru0036                    hru          36     4.3590E-4       0.47083       0.00000  
      37  hru0037                    hru          37     2.6231E-4       0.28333       0.00000  
      38  hru0038                    hru          38     1.5044E-4       0.16250       0.00000  
      39  hru0039                    hru          39     5.4005E-5       0.05833       0.00000  
      40  hru0040                    hru          40     1.5430E-5       0.01667       0.00000  
      41  hru0041                    hru          41     7.5221E-4       0.52419       0.00000  
      42  hru0042                    hru          42     6.8278E-4       0.47581       0.00000  
      43  hru0043                    hru          43     8.4865E-5       0.04297       0.00000  
      44  hru0044                    hru          44     1.2923E-3       0.65430       0.00000  
      45  hru0045                    hru          45     3.0860E-4       0.15625       0.00000  
      46  hru0046                    hru          46     2.8545E-4       0.14453       0.00000  
      47  hru0047                    hru          47     3.8575E-6       0.00195       0.00000  
      48  hru0048                    hru          48     1.9287E-4       0.04348       0.00000  
      49  hru0049                    hru          49     4.2240E-3       0.95217       0.00000  
      50  hru0050                    hru          50     1.9287E-5       0.00435       0.00000  
      51  hru0051                    hru          51     3.7032E-4       0.52747       0.00000  
      52  hru0052                    hru          52     3.3174E-4       0.47253       0.00000  
      53  hru0053                    hru          53     3.0860E-5       0.01970       0.00000  
      54  hru0054                    hru          54     1.1495E-3       0.73399       0.00000  
      55  hru0055                    hru          55     3.6646E-4       0.23399       0.00000  
      56  hru0056                    hru          56     3.8575E-6       0.00246       0.00000  
      57  hru0057                    hru          57     1.5430E-5       0.00985       0.00000  
      58  hru0058                    hru          58     1.1572E-4       0.07407       0.00000  
      59  hru0059                    hru          59     6.7506E-4       0.43210       0.00000  
      60  hru0060                    hru          60     7.3292E-4       0.46914       0.00000  
      61  hru0061                    hru          61     1.1572E-5       0.00741       0.00000  
      62  hru0062                    hru          62     3.8575E-6       0.00247       0.00000  
      63  hru0063                    hru          63     2.3145E-5       0.01481       0.00000  
      64  hru0064                    hru          64     4.6290E-5       0.01142       0.00000  
      65  hru0065                    hru          65     2.5845E-3       0.63749       0.00000  
      66  hru0066                    hru          66     1.4196E-3       0.35014       0.00000  
      67  hru0067                    hru          67     3.8575E-6       0.00095       0.00000  
      68  hru0068                    hru          68     1.1110E-3       0.55491       0.00000  
      69  hru0069                    hru          69     8.5636E-4       0.42775       0.00000  
      70  hru0070                    hru          70     3.4717E-5       0.01734       0.00000  
      71  hru0071                    hru          71     1.5430E-5       0.01527       0.00000  
      72  hru0072                    hru          72     7.9850E-4       0.79008       0.00000  
      73  hru0073                    hru          73     6.9435E-5       0.06870       0.00000  
      74  hru0074                    hru          74     1.0029E-4       0.09924       0.00000  
      75  hru0075                    hru          75     7.7150E-6       0.00763       0.00000  
      76  hru0076                    hru          76     1.9287E-5       0.01908       0.00000  
      77  hru0077                    hru          77     6.9435E-5       0.75000       0.00000  
      78  hru0078                    hru          78     1.9287E-5       0.20833       0.00000  
      79  hru0079                    hru          79     3.8575E-6       0.04167       0.00000  
      80  hru0080                    hru          80     1.2730E-4       0.12360       0.00000  
      81  hru0081                    hru          81     1.3501E-4       0.13109       0.00000  
      82  hru0082                    hru          82     2.7388E-4       0.26592       0.00000  
      83  hru0083                    hru          83     1.5430E-4       0.14981       0.00000  
      84  hru0084                    hru          84     6.9435E-5       0.06742       0.00000  
      85  hru0085                    hru          85     9.2580E-5       0.08989       0.00000  
      86  hru0086                    hru          86     8.4865E-5       0.08240       0.00000  
      87  hru0087                    hru          87     5.4005E-5       0.05243       0.00000  
      88  hru0088                    hru          88     1.1572E-5       0.01124       0.00000  
      89  hru0089                    hru          89     2.3145E-5       0.02247       0.00000  
      90  hru0090                    hru          90     3.8575E-6       0.00375       0.00000  
      91  hru0091                    hru          91     8.9879E-4       0.87594       0.00000  
      92  hru0092                    hru          92     1.1572E-4       0.11278       0.00000  
      93  hru0093                    hru          93     1.1572E-5       0.01128       0.00000  
      94  hru0094                    hru          94     9.6437E-5       0.16026       0.00000  
      95  hru0095                    hru          95     2.4688E-4       0.41026       0.00000  
      96  hru0096                    hru          96     1.0801E-4       0.17949       0.00000  
      97  hru0097                    hru          97     7.3292E-5       0.12179       0.00000  
      98  hru0098                    hru          98     7.7150E-5       0.12821       0.00000  
      99  hru0099                    hru          99     6.7120E-4       0.92063       0.00000  
     100  hru0100                    hru         100     5.7862E-5       0.07937       0.00000  
     101  hru0101                    hru         101     2.6231E-4       0.40237       0.00000  
     102  hru0102                    hru         102     1.8902E-4       0.28994       0.00000  
     103  hru0103                    hru         103     1.5044E-4       0.23077       0.00000  
     104  hru0104                    hru         104     1.1572E-5       0.01775       0.00000  
     105  hru0105                    hru         105     1.9287E-5       0.02959       0.00000  
     106  hru0106                    hru         106     1.9287E-5       0.02959       0.00000  
     107  hru0107                    hru         107     2.5845E-4       0.13189       0.00000  
     108  hru0108                    hru         108     7.9850E-4       0.40748       0.00000  
     109  hru0109                    hru         109     5.7091E-4       0.29134       0.00000  
     110  hru0110                    hru         110     2.7774E-4       0.14173       0.00000  
     111  hru0111                    hru         111     4.2432E-5       0.02165       0.00000  
     112  hru0112                    hru         112     7.7150E-6       0.00394       0.00000  
     113  hru0113                    hru         113     3.8575E-6       0.00197       0.00000  
     114  hru0114                    hru         114     5.0147E-4       0.62500       0.00000  
     115  hru0115                    hru         115     7.7150E-5       0.09615       0.00000  
     116  hru0116                    hru         116     2.0059E-4       0.25000       0.00000  
     117  hru0117                    hru         117     1.9287E-5       0.02404       0.00000  
     118  hru0118                    hru         118     3.8575E-6       0.00481       0.00000  
     119  hru0119                    hru         119     3.4717E-5       0.13043       0.00000  
     120  hru0120                    hru         120     2.2373E-4       0.84058       0.00000  
     121  hru0121                    hru         121     7.7150E-6       0.02899       0.00000  
     122  hru0122                    hru         122     1.3385E-3       0.81265       0.00000  
     123  hru0123                    hru         123     2.0445E-4       0.12412       0.00000  
     124  hru0124                    hru         124     8.8722E-5       0.05386       0.00000  
     125  hru0125                    hru         125     1.1572E-5       0.00703       0.00000  
     126  hru0126                    hru         126     3.8575E-6       0.00234       0.00000  
     127  hru0127                    hru         127     3.4717E-4       0.48128       0.00000  
     128  hru0128                    hru         128     6.5577E-5       0.09091       0.00000  
     129  hru0129                    hru         129     6.9435E-5       0.09626       0.00000  
     130  hru0130                    hru         130     1.6973E-4       0.23529       0.00000  
     131  hru0131                    hru         131     6.5577E-5       0.09091       0.00000  
     132  hru0132                    hru         132     3.8575E-6       0.00535       0.00000  
     133  hru0133                    hru         133     4.6676E-4       0.68362       0.00000  
     134  hru0134                    hru         134     2.1602E-4       0.31638       0.00000  
     135  hru0135                    hru         135     7.3292E-5       0.12179       0.00000  
     136  hru0136                    hru         136     2.3145E-5       0.03846       0.00000  
     137  hru0137                    hru         137     6.1720E-5       0.10256       0.00000  
     138  hru0138                    hru         138     1.1187E-4       0.18590       0.00000  
     139  hru0139                    hru         139     7.3292E-5       0.12179       0.00000  
     140  hru0140                    hru         140     3.8575E-5       0.06410       0.00000  
     141  hru0141                    hru         141     3.8575E-5       0.06410       0.00000  
     142  hru0142                    hru         142     7.3292E-5       0.12179       0.00000  
     143  hru0143                    hru         143     1.0415E-4       0.17308       0.00000  
     144  hru0144                    hru         144     3.8575E-6       0.00641       0.00000  
     145  hru0145                    hru         145     4.6290E-5       0.03343       0.00000  
     146  hru0146                    hru         146     1.3347E-3       0.96379       0.00000  
     147  hru0147                    hru         147     3.8575E-6       0.00279       0.00000  
     148  hru0148                    hru         148     1.4273E-4       0.88095       0.00000  
     149  hru0149                    hru         149     1.9287E-5       0.11905       0.00000  
     150  hru0150                    hru         150     6.4420E-4       0.55116       0.00000  
     151  hru0151                    hru         151     3.5875E-4       0.30693       0.00000  
     152  hru0152                    hru         152     1.0801E-4       0.09241       0.00000  
     153  hru0153                    hru         153     2.7002E-5       0.02310       0.00000  
     154  hru0154                    hru         154     1.5430E-5       0.01320       0.00000  
     155  hru0155                    hru         155     1.5430E-5       0.01320       0.00000  
     156  hru0156                    hru         156     1.2614E-3       0.54682       0.00000  
     157  hru0157                    hru         157     4.9376E-4       0.21405       0.00000  
     158  hru0158                    hru         158     1.7744E-4       0.07692       0.00000  
     159  hru0159                    hru         159     3.0860E-5       0.01338       0.00000  
     160  hru0160                    hru         160     2.8931E-4       0.12542       0.00000  
     161  hru0161                    hru         161     3.4717E-5       0.01505       0.00000  
     162  hru0162                    hru         162     1.9287E-5       0.00836       0.00000  
     163  hru0163                    hru         163     1.2344E-4       0.09877       0.00000  
     164  hru0164                    hru         164     1.6973E-4       0.13580       0.00000  
     165  hru0165                    hru         165     4.3204E-4       0.34568       0.00000  
     166  hru0166                    hru         166     5.2076E-4       0.41667       0.00000  
     167  hru0167                    hru         167     3.8575E-6       0.00309       0.00000  
     168  hru0168                    hru         168     6.5577E-5       0.10828       0.00000  
     169  hru0169                    hru         169     2.5459E-4       0.42038       0.00000  
     170  hru0170                    hru         170     7.7150E-6       0.01274       0.00000  
     171  hru0171                    hru         171     5.0147E-5       0.08280       0.00000  
     172  hru0172                    hru         172     3.8575E-5       0.06369       0.00000  
     173  hru0173                    hru         173     1.6973E-4       0.28025       0.00000  
     174  hru0174                    hru         174     1.5430E-5       0.02548       0.00000  
     175  hru0175                    hru         175     3.8575E-6       0.00637       0.00000  
     176  hru0176                    hru         176     9.9137E-4       0.30778       0.00000  
     177  hru0177                    hru         177     1.0801E-4       0.03353       0.00000  
     178  hru0178                    hru         178     2.4688E-4       0.07665       0.00000  
     179  hru0179                    hru         179     1.2344E-4       0.03832       0.00000  
     180  hru0180                    hru         180     1.7513E-3       0.54371       0.00000  
     181  hru0181                    hru         181     6.7120E-4       1.00000       0.00000  
     182  hru0182                    hru         182     2.3145E-5       0.04138       0.00000  
     183  hru0183                    hru         183     2.9703E-4       0.53103       0.00000  
     184  hru0184                    hru         184     2.7002E-5       0.04828       0.00000  
     185  hru0185                    hru         185     1.7359E-4       0.31034       0.00000  
     186  hru0186                    hru         186     3.8575E-6       0.00690       0.00000  
     187  hru0187                    hru         187     3.4717E-5       0.06207       0.00000  
     188  hru0188                    hru         188     2.2065E-3       0.97279       0.00000  
     189  hru0189                    hru         189     3.0860E-5       0.01361       0.00000  
     190  hru0190                    hru         190     3.8575E-6       0.00170       0.00000  
     191  hru0191                    hru         191     2.7002E-5       0.01190       0.00000  
     192  hru0192                    hru         192     5.0533E-4       0.97761       0.00000  
     193  hru0193                    hru         193     1.1572E-5       0.02239       0.00000  
     194  hru0194                    hru         194     7.7150E-6       0.00408       0.00000  
     195  hru0195                    hru         195     5.7477E-4       0.30408       0.00000  
     196  hru0196                    hru         196     1.5430E-5       0.00816       0.00000  
     197  hru0197                    hru         197     5.1690E-4       0.27347       0.00000  
     198  hru0198                    hru         198     1.5430E-5       0.00816       0.00000  
     199  hru0199                    hru         199     2.3916E-4       0.12653       0.00000  
     200  hru0200                    hru         200     9.2580E-5       0.04898       0.00000  
     201  hru0201                    hru         201     3.9732E-4       0.21020       0.00000  
     202  hru0202                    hru         202     1.1572E-5       0.00612       0.00000  
     203  hru0203                    hru         203     1.9287E-5       0.01020       0.00000  
     204  hru0204                    hru         204     7.4835E-4       0.86222       0.00000  
     205  hru0205                    hru         205     1.1958E-4       0.13778       0.00000  
     206  hru0206                    hru         206     1.6471E-3       0.80871       0.00000  
     207  hru0207                    hru         207     3.8575E-6       0.00189       0.00000  
     208  hru0208                    hru         208     3.5103E-4       0.17235       0.00000  
     209  hru0209                    hru         209     1.9287E-5       0.00947       0.00000  
     210  hru0210                    hru         210     1.1572E-5       0.00568       0.00000  
     211  hru0211                    hru         211     3.8575E-6       0.00189       0.00000  
     212  hru0212                    hru         212     2.5459E-4       0.13497       0.00000  
     213  hru0213                    hru         213     1.2305E-3       0.65235       0.00000  
     214  hru0214                    hru         214     4.0118E-4       0.21268       0.00000  
     215  hru0215                    hru         215     2.7388E-4       0.20286       0.00000  
     216  hru0216                    hru         216     1.1572E-5       0.00857       0.00000  
     217  hru0217                    hru         217     1.9287E-5       0.01429       0.00000  
     218  hru0218                    hru         218     6.8278E-4       0.50571       0.00000  
     219  hru0219                    hru         219     1.7744E-4       0.13143       0.00000  
     220  hru0220                    hru         220     2.7002E-5       0.02000       0.00000  
     221  hru0221                    hru         221     1.2344E-4       0.09143       0.00000  
     222  hru0222                    hru         222     2.7002E-5       0.02000       0.00000  
     223  hru0223                    hru         223     7.7150E-6       0.00571       0.00000  
     224  hru0224                    hru         224     3.8189E-4       0.52105       0.00000  
     225  hru0225                    hru         225     1.0415E-4       0.14211       0.00000  
     226  hru0226                    hru         226     2.1988E-4       0.30000       0.00000  
     227  hru0227                    hru         227     2.3145E-5       0.03158       0.00000  
     228  hru0228                    hru         228     3.8575E-6       0.00526       0.00000  
     229  hru0229                    hru         229     3.4332E-4       0.30479       0.00000  
     230  hru0230                    hru         230     6.2491E-4       0.55479       0.00000  
     231  hru0231                    hru         231     3.0860E-5       0.02740       0.00000  
     232  hru0232                    hru         232     9.6437E-5       0.08562       0.00000  
     233  hru0233                    hru         233     3.0860E-5       0.02740       0.00000  
     234  hru0234                    hru         234     1.0299E-3       0.72752       0.00000  
     235  hru0235                    hru         235     6.9435E-5       0.04905       0.00000  
     236  hru0236                    hru         236     2.7774E-4       0.19619       0.00000  
     237  hru0237                    hru         237     1.1572E-5       0.00817       0.00000  
     238  hru0238                    hru         238     3.8575E-6       0.00272       0.00000  
     239  hru0239                    hru         239     1.9287E-5       0.01362       0.00000  
     240  hru0240                    hru         240     3.8575E-6       0.00272       0.00000  
     241  hru0241                    hru         241     4.2432E-4       0.24943       0.00000  
     242  hru0242                    hru         242     1.2498E-3       0.73469       0.00000  
     243  hru0243                    hru         243     2.3145E-5       0.01361       0.00000  
     244  hru0244                    hru         244     3.8575E-6       0.00227       0.00000  
     245  hru0245                    hru         245     7.8693E-4       0.43966       0.00000  
     246  hru0246                    hru         246     5.3233E-4       0.29741       0.00000  
     247  hru0247                    hru         247     4.1275E-4       0.23060       0.00000  
     248  hru0248                    hru         248     3.4717E-5       0.01940       0.00000  
     249  hru0249                    hru         249     7.7150E-6       0.00431       0.00000  
     250  hru0250                    hru         250     1.1572E-5       0.00647       0.00000  
     251  hru0251                    hru         251     3.8575E-6       0.00216       0.00000  
     252  hru0252                    hru         252     1.9287E-4       0.11364       0.00000  
     253  hru0253                    hru         253     1.2691E-3       0.74773       0.00000  
     254  hru0254                    hru         254     1.7359E-4       0.10227       0.00000  
     255  hru0255                    hru         255     3.8575E-6       0.00227       0.00000  
     256  hru0256                    hru         256     3.8575E-5       0.02273       0.00000  
     257  hru0257                    hru         257     1.5430E-5       0.00909       0.00000  
     258  hru0258                    hru         258     3.8575E-6       0.00227       0.00000  
     259  hru0259                    hru         259     1.1071E-3       0.98288       0.00000  
     260  hru0260                    hru         260     3.8575E-6       0.00342       0.00000  
     261  hru0261                    hru         261     1.5430E-5       0.01370       0.00000  
     262  hru0262                    hru         262     1.6201E-4       0.12727       0.00000  
     263  hru0263                    hru         263     2.3145E-5       0.01818       0.00000  
     264  hru0264                    hru         264     1.0415E-4       0.08182       0.00000  
     265  hru0265                    hru         265     3.0860E-5       0.02424       0.00000  
     266  hru0266                    hru         266     2.5459E-4       0.20000       0.00000  
     267  hru0267                    hru         267     3.8189E-4       0.30000       0.00000  
     268  hru0268                    hru         268     1.0415E-4       0.08182       0.00000  
     269  hru0269                    hru         269     1.8902E-4       0.14848       0.00000  
     270  hru0270                    hru         270     3.8575E-6       0.00303       0.00000  
     271  hru0271                    hru         271     1.1572E-5       0.00909       0.00000  
     272  hru0272                    hru         272     7.7150E-6       0.00606       0.00000  
     273  hru0273                    hru         273     4.0504E-4       0.38889       0.00000  
     274  hru0274                    hru         274     1.1958E-4       0.11481       0.00000  
     275  hru0275                    hru         275     4.8219E-4       0.46296       0.00000  
     276  hru0276                    hru         276     3.8575E-6       0.00370       0.00000  
     277  hru0277                    hru         277     1.1572E-5       0.01111       0.00000  
     278  hru0278                    hru         278     3.8575E-6       0.00370       0.00000  
     279  hru0279                    hru         279     1.1572E-5       0.01111       0.00000  
     280  hru0280                    hru         280     3.8575E-6       0.00370       0.00000  
     281  hru0281                    hru         281     1.5931E-3       0.75365       0.00000  
     282  hru0282                    hru         282     4.7447E-4       0.22445       0.00000  
     283  hru0283                    hru         283     4.6290E-5       0.02190       0.00000  
     284  hru0284                    hru         284     1.1572E-4       0.17964       0.00000  
     285  hru0285                    hru         285     5.0147E-5       0.07784       0.00000  
     286  hru0286                    hru         286     3.7803E-4       0.58683       0.00000  
     287  hru0287                    hru         287     7.3292E-5       0.11377       0.00000  
     288  hru0288                    hru         288     1.1572E-5       0.01796       0.00000  
     289  hru0289                    hru         289     1.5430E-5       0.02395       0.00000  
     290  hru0290                    hru         290     2.3531E-4       0.20266       0.00000  
     291  hru0291                    hru         291     1.1958E-4       0.10299       0.00000  
     292  hru0292                    hru         292     1.6973E-4       0.14618       0.00000  
     293  hru0293                    hru         293     1.5816E-4       0.13621       0.00000  
     294  hru0294                    hru         294     1.0801E-4       0.09302       0.00000  
     295  hru0295                    hru         295     8.4865E-5       0.07309       0.00000  
     296  hru0296                    hru         296     3.8575E-5       0.03322       0.00000  
     297  hru0297                    hru         297     5.0147E-5       0.04319       0.00000  
     298  hru0298                    hru         298     1.5044E-4       0.12957       0.00000  
     299  hru0299                    hru         299     4.6290E-5       0.03987       0.00000  
     300  hru0300                    hru         300     1.1071E-3       0.61064       0.00000  
     301  hru0301                    hru         301     3.0860E-5       0.01702       0.00000  
     302  hru0302                    hru         302     5.0147E-5       0.02766       0.00000  
     303  hru0303                    hru         303     8.1007E-5       0.04468       0.00000  
     304  hru0304                    hru         304     3.4717E-5       0.01915       0.00000  
     305  hru0305                    hru         305     3.8575E-6       0.00213       0.00000  
     306  hru0306                    hru         306     1.2730E-4       0.07021       0.00000  
     307  hru0307                    hru         307     1.0801E-4       0.05957       0.00000  