management.sch: written by SWAT+ editor v2.3.3 on 2024-08-26 08:41 
name                                       numb_ops  numb_auto            op_typ       mon       day        hu_sch          op_data1          op_data2      op_data3  
agrl_rot                          0          1  
                                                   pl_hv_summer1   agrl  
agrr_rot                          0          1  
                                                   pl_hv_summer1   agrr  
