nutrients.sol: written by SWAT+ editor v2.3.3 on 2024-08-26 08:41 
name                    exp_co         lab_p       nitrate    fr_hum_act       hum_c_n       hum_c_p        inorgp    watersol_p         h3a_p     mehlich_p  bray_strong_p  description
soilnut1               0.00050       5.00000       7.00000       0.02000      10.00000      80.00000       3.50000       0.15000       0.25000       1.20000       0.85000  
