object.cnt: written by SWAT+ editor v2.3.3 on 2024-08-26 08:40 
name                   ls_area      tot_area       obj       hru      lhru       rtu       mfl       aqu       cha       res       rec      exco       dlr       can       pmp       out      lcha     aqu2d       hrd       wro  
africasave        22303138.61595  22303138.61595      8102      5153         0       985         0       990         0         4         0         0         0         0         0         0       970         0         0         0  
