pesticide.pes: written by SWAT+ editor v2.3.3 on 2024-08-26 08:41 
name                  soil_ads     frac_wash    hl_foliage       hl_soil         solub      aq_hlife      aq_volat        mol_wt      aq_resus     aq_settle   ben_act_dep      ben_bury     ben_hlife  description
245-tp              2600.00000       0.40000       5.00000      20.00000       2.50000       0.00700       0.00001       0.10000       0.00200       0.50000       0.30000       0.00200       0.05000  Silvex
2plus2                20.00000       0.95000      10.00000      21.00000  660000.00000       0.00700       0.00001       0.10000       0.00200       0.50000       0.30000       0.00200       0.05000  Mecoprop_Amine
aatrex               171.00000       0.45000       5.00000      60.00000      33.00000       0.00700       0.00001       0.10000       0.00200       0.50000       0.30000       0.00200       0.05000  Atrazine
abate             100000.00000       0.65000       5.00000      30.00000       0.00000       0.00700       0.00001       0.10000       0.00200       0.50000       0.30000       0.00200       0.05000  Temephos
acaraben            2000.00000       0.05000      10.00000      20.00000      13.00000       0.00700       0.00001       0.10000       0.00200       0.50000       0.30000       0.00200       0.05000  Chlorobenzilate
accelera              20.00000       0.90000       7.00000       7.00000  100000.00000       0.00700       0.00001       0.10000       0.00200       0.50000       0.30000       0.00200       0.05000  Endothall_Salt
acclaim             9490.00000       0.20000       5.00000       9.00000       0.80000       0.00700       0.00001       0.10000       0.00200       0.50000       0.30000       0.00200       0.05000  Fenoxaprop_Ethyl
alanap                20.00000       0.95000       7.00000      14.00000  231000.00000       0.00700       0.00001       0.10000       0.00200       0.50000       0.30000       0.00200       0.05000  Naptalam_Sodium_Salt
alar                  10.00000       0.95000       4.00000       7.00000  100000.00000       0.00700       0.00001       0.10000       0.00200       0.50000       0.30000       0.00200       0.05000  Daminozide
aldrin               300.00000       0.05000       2.00000      28.00000       0.10000       0.00700       0.00001       0.10000       0.00200       0.50000       0.30000       0.00200       0.05000  Aldrin
aliette               20.00000       0.95000       0.10000       0.10000  120000.00000       0.00700       0.00001       0.10000       0.00200       0.50000       0.30000       0.00200       0.05000  Fosetyl_Aluminum
ally                  35.00000       0.80000      30.00000     120.00000    9500.00000       0.00700       0.00001       0.10000       0.00200       0.50000       0.30000       0.00200       0.05000  Metsulfuron_Methyl
amiben                15.00000       0.95000       7.00000      14.00000  900000.00000       0.00700       0.00001       0.10000       0.00200       0.50000       0.30000       0.00200       0.05000  Chloramben_Salts
amid-thi             100.00000       0.60000       5.00000      10.00000     100.00000       0.00700       0.00001       0.10000       0.00200       0.50000       0.30000       0.00200       0.05000  NAA_Amide
amitrolt             100.00000       0.95000       5.00000      14.00000  360000.00000       0.00700       0.00001       0.10000       0.00200       0.50000       0.30000       0.00200       0.05000  Amitrole
ammo              100000.00000       0.40000       5.00000      30.00000       0.00000       0.00700       0.00001       0.10000       0.00200       0.50000       0.30000       0.00200       0.05000  Cypermethrin
antor               1400.00000       0.40000      10.00000      21.00000     105.00000       0.00700       0.00001       0.10000       0.00200       0.50000       0.30000       0.00200       0.05000  Diethatyl_Ethyl
a-rest               120.00000       0.50000      30.00000     120.00000     650.00000       0.00700       0.00001       0.10000       0.00200       0.50000       0.30000       0.00200       0.05000  Ancymidol
arsenal              100.00000       0.90000      30.00000      90.00000   11000.00000       0.00700       0.00001       0.10000       0.00200       0.50000       0.30000       0.00200       0.05000  Imazapyr_Acid
arsonate           10000.00000       0.95000      30.00000     100.00000  1000000.00000       0.00700       0.00001       0.10000       0.00200       0.50000       0.30000       0.00200       0.05000  MSMA
asana               5300.00000       0.40000       8.00000      35.00000       0.00000       0.00700       0.00001       0.10000       0.00200       0.50000       0.30000       0.00200       0.05000  Esfenvalerate
assert_m              66.00000       0.65000      18.00000      35.00000    1370.00000       0.00700       0.00001       0.10000       0.00200       0.50000       0.30000       0.00200       0.05000  Imazamethabenz_m
assert_p              35.00000       0.65000      18.00000      35.00000     875.00000       0.00700       0.00001       0.10000       0.00200       0.50000       0.30000       0.00200       0.05000  Imazamethabenz_p
assure               510.00000       0.20000      15.00000      60.00000       0.30000       0.00700       0.00001       0.10000       0.00200       0.50000       0.30000       0.00200       0.05000  Quizalofop_Ethyl
asulox                40.00000       0.95000       3.00000       7.00000  550000.00000       0.00700       0.00001       0.10000       0.00200       0.50000       0.30000       0.00200       0.05000  Asulam_Sodium_Salt
avenge             54500.00000       0.95000      30.00000     100.00000  817000.00000       0.00700       0.00001       0.10000       0.00200       0.50000       0.30000       0.00200       0.05000  Difenzoquat
azodrin                1.00000       0.95000       2.00000      30.00000  1000000.00000       0.00700       0.00001       0.10000       0.00200       0.50000       0.30000       0.00200       0.05000  Monocrotophos
balan               9000.00000       0.20000      10.00000      30.00000       0.10000       0.00700       0.00001       0.10000       0.00200       0.50000       0.30000       0.00200       0.05000  Benefin
banol             1000000.00000       0.95000      15.00000      30.00000  1000000.00000       0.00700       0.00001       0.10000       0.00200       0.50000       0.30000       0.00200       0.05000  Propamocarb
banvel                 2.00000       0.65000       9.00000      14.00000  400000.00000       0.00700       0.00001       0.10000       0.00200       0.50000       0.30000       0.00200       0.05000  Dicamba
basagran              34.00000       0.60000       2.00000      20.00000  2300000.00000       0.00700       0.00001       0.10000       0.00200       0.50000       0.30000       0.00200       0.05000  Bentazon
basta                100.00000       0.95000       4.00000       7.00000  1370000.00000       0.00700       0.00001       0.10000       0.00200       0.50000       0.30000       0.00200       0.05000  Glufosinate_Ammonia
bayleton             300.00000       0.30000       8.00000      26.00000      71.50000       0.00700       0.00001       0.10000       0.00200       0.50000       0.30000       0.00200       0.05000  Triadimefon
baytex              1500.00000       0.65000       2.00000      34.00000       4.20000       0.00700       0.00001       0.10000       0.00200       0.50000       0.30000       0.00200       0.05000  Fenthion
baythroi          100000.00000       0.40000       5.00000      30.00000       0.00000       0.00700       0.00001       0.10000       0.00200       0.50000       0.30000       0.00200       0.05000  Cyfluthrin
benlate             1900.00000       0.25000       6.00000     240.00000       2.00000       0.00700       0.00001       0.10000       0.00200       0.50000       0.30000       0.00200       0.05000  Benomyl
benzex             55000.00000       0.05000       3.00000     600.00000       0.10000       0.00700       0.00001       0.10000       0.00200       0.50000       0.30000       0.00200       0.05000  BHC
betamix             2400.00000       0.70000       5.00000      30.00000       4.70000       0.00700       0.00001       0.10000       0.00200       0.50000       0.30000       0.00200       0.05000  Phenmedipham
betanex             1500.00000       0.70000       5.00000      30.00000       8.00000       0.00700       0.00001       0.10000       0.00200       0.50000       0.30000       0.00200       0.05000  Desmedipham
bidrin                75.00000       0.70000      20.00000      28.00000  1000000.00000       0.00700       0.00001       0.10000       0.00200       0.50000       0.30000       0.00200       0.05000  Dicrotophos
bladex               190.00000       0.60000       5.00000      14.00000     170.00000       0.00700       0.00001       0.10000       0.00200       0.50000       0.30000       0.00200       0.05000  Cyanazine
bolero               900.00000       0.70000       7.00000      21.00000      28.00000       0.00700       0.00001       0.10000       0.00200       0.50000       0.30000       0.00200       0.05000  Thiobencarb
bolstar            12000.00000       0.55000       0.50000     140.00000       0.30000       0.00700       0.00001       0.10000       0.00200       0.50000       0.30000       0.00200       0.05000  Sulprofos
borderma            1000.00000       0.50000       8.00000      25.00000       5.00000       0.00700       0.00001       0.10000       0.00200       0.50000       0.30000       0.00200       0.05000  MCPA_Ester
botran              1000.00000       0.50000       4.00000      10.00000       7.00000       0.00700       0.00001       0.10000       0.00200       0.50000       0.30000       0.00200       0.05000  DCNA_(Dicloran)
bravo               1380.00000       0.50000       5.00000      30.00000       0.60000       0.00700       0.00001       0.10000       0.00200       0.50000       0.30000       0.00200       0.05000  Chlorothalonil
buctril            10000.00000       0.20000       3.00000       7.00000       0.10000       0.00700       0.00001       0.10000       0.00200       0.50000       0.30000       0.00200       0.05000  Bromoxynil_Octan_Est
butyrace             500.00000       0.45000       7.00000       7.00000       8.00000       0.00700       0.00001       0.10000       0.00200       0.50000       0.30000       0.00200       0.05000  2_4_DB_Ester
caparol              400.00000       0.50000      10.00000      60.00000      33.00000       0.00700       0.00001       0.10000       0.00200       0.50000       0.30000       0.00200       0.05000  Prometryn
carbamat             300.00000       0.90000       3.00000      17.00000     120.00000       0.00700       0.00001       0.10000       0.00200       0.50000       0.30000       0.00200       0.05000  Ferbam
carsoron             400.00000       0.45000       5.00000      60.00000      21.20000       0.00700       0.00001       0.10000       0.00200       0.50000       0.30000       0.00200       0.05000  Dichlobenil
carzol            1000000.00000       0.95000      30.00000     100.00000  500000.00000       0.00700       0.00001       0.10000       0.00200       0.50000       0.30000       0.00200       0.05000  Formetanate_Hydrochio
cerone            100000.00000       0.95000       5.00000      10.00000  1239000.00000       0.00700       0.00001       0.10000       0.00200       0.50000       0.30000       0.00200       0.05000  Ethephon
chem-hoe             200.00000       0.50000       2.00000      10.00000     250.00000       0.00700       0.00001       0.10000       0.00200       0.50000       0.30000       0.00200       0.05000  Propham_(IPC)
chlordan          100000.00000       0.05000       2.50000     100.00000       0.10000       0.00700       0.00001       0.10000       0.00200       0.50000       0.30000       0.00200       0.05000  Chlordane
chopper              100.00000       0.80000      30.00000      90.00000  500000.00000       0.00700       0.00001       0.10000       0.00200       0.50000       0.30000       0.00200       0.05000  Imazapyr_Amine
classic              110.00000       0.90000      15.00000      40.00000    1200.00000       0.00700       0.00001       0.10000       0.00200       0.50000       0.30000       0.00200       0.05000  Chlorimuron_Ethyl
cobra             100000.00000       0.20000       2.00000       3.00000       0.10000       0.00700       0.00001       0.10000       0.00200       0.50000       0.30000       0.00200       0.05000  Lactofen
comite              4000.00000       0.20000       5.00000      56.00000       0.50000       0.00700       0.00001       0.10000       0.00200       0.50000       0.30000       0.00200       0.05000  Propargite
command              300.00000       0.80000       3.00000      24.00000    1000.00000       0.00700       0.00001       0.10000       0.00200       0.50000       0.30000       0.00200       0.05000  Clomazone
cotoran              100.00000       0.50000      30.00000      85.00000     110.00000       0.00700       0.00001       0.10000       0.00200       0.50000       0.30000       0.00200       0.05000  Fluometuron
counter              500.00000       0.60000       2.50000       5.00000       5.00000       0.00700       0.00001       0.10000       0.00200       0.50000       0.30000       0.00200       0.05000  Terbufos
crossbow              20.00000       0.95000      15.00000      46.00000  2100000.00000       0.00700       0.00001       0.10000       0.00200       0.50000       0.30000       0.00200       0.05000  Triclopyr_Amine
curacron            2000.00000       0.90000       3.00000       8.00000      28.00000       0.00700       0.00001       0.10000       0.00200       0.50000       0.30000       0.00200       0.05000  Profenofos
cygon                 20.00000       0.95000       3.00000       7.00000   39800.00000       0.00700       0.00001       0.10000       0.00200       0.50000       0.30000       0.00200       0.05000  Dimethoate
cyprex            100000.00000       0.50000      10.00000      20.00000     700.00000       0.00700       0.00001       0.10000       0.00200       0.50000       0.30000       0.00200       0.05000  Dodine_Acetate
cythion             1800.00000       0.90000       1.00000       1.00000     130.00000       0.00700       0.00001       0.10000       0.00200       0.50000       0.30000       0.00200       0.05000  Malathion
dacamine              20.00000       0.45000       5.00000      10.00000     890.00000       0.00700       0.00001       0.10000       0.00200       0.50000       0.30000       0.00200       0.05000  2_4_D_Acid
dacthal             5000.00000       0.30000      10.00000     100.00000       0.50000       0.00700       0.00001       0.10000       0.00200       0.50000       0.30000       0.00200       0.05000  DCPA
dalapon                1.00000       0.95000      37.00000      30.00000  900000.00000       0.00700       0.00001       0.10000       0.00200       0.50000       0.30000       0.00200       0.05000  Dalapon_Sodium_Salt
dasanit            10000.00000       0.90000       4.00000      24.00000       0.00000       0.00700       0.00001       0.10000       0.00200       0.50000       0.30000       0.00200       0.05000  Fensulfothion
ddt               240000.00000       0.05000      10.00000     120.00000       0.10000       0.00700       0.00001       0.10000       0.00200       0.50000       0.30000       0.00200       0.05000  DDT
dedweed               20.00000       0.95000       7.00000      25.00000  866000.00000       0.00700       0.00001       0.10000       0.00200       0.50000       0.30000       0.00200       0.05000  MCPA_Amine
def                 5000.00000       0.25000       7.00000      30.00000       2.30000       0.00700       0.00001       0.10000       0.00200       0.50000       0.30000       0.00200       0.05000  Tribufos
dessican           10000.00000       0.95000   10000.00000   10000.00000   17000.00000       0.00700       0.00001       0.10000       0.00200       0.50000       0.30000       0.00200       0.05000  Arsenic_Acid
devrinol             400.00000       0.60000      15.00000      70.00000      74.00000       0.00700       0.00001       0.10000       0.00200       0.50000       0.30000       0.00200       0.05000  Napropamide
di-systo             600.00000       0.50000       3.00000      30.00000      25.00000       0.00700       0.00001       0.10000       0.00200       0.50000       0.30000       0.00200       0.05000  Disulfoton
dibrom               180.00000       0.90000       5.00000       1.00000    2000.00000       0.00700       0.00001       0.10000       0.00200       0.50000       0.30000       0.00200       0.05000  Naled
dieldrin           50000.00000       0.05000       5.00000    1400.00000       0.10000       0.00700       0.00001       0.10000       0.00200       0.50000       0.30000       0.00200       0.05000  Dieldrin
dimilin            10000.00000       0.05000      27.00000      10.00000       0.10000       0.00700       0.00001       0.10000       0.00200       0.50000       0.30000       0.00200       0.05000  Diflubenzuron
dinitro              500.00000       0.60000       3.00000      20.00000      50.00000       0.00700       0.00001       0.10000       0.00200       0.50000       0.30000       0.00200       0.05000  Dinoseb_Phenol
diquat            1000000.00000       0.95000      30.00000    1000.00000  718000.00000       0.00700       0.00001       0.10000       0.00200       0.50000       0.30000       0.00200       0.05000  Diquat_Dibromide
dithane             2000.00000       0.25000      10.00000      70.00000       6.00000       0.00700       0.00001       0.10000       0.00200       0.50000       0.30000       0.00200       0.05000  Mancozeb
dowpon                 4.00000       0.95000      37.00000      30.00000    1000.00000       0.00700       0.00001       0.10000       0.00200       0.50000       0.30000       0.00200       0.05000  Dalapon
dropp                110.00000       0.40000       3.00000      10.00000      20.00000       0.00700       0.00001       0.10000       0.00200       0.50000       0.30000       0.00200       0.05000  Thidiazuron
dsma              100000.00000       0.95000      30.00000    1000.00000  1400000.00000       0.00700       0.00001       0.10000       0.00200       0.50000       0.30000       0.00200       0.05000  Methanearsonic_Acid_N
du-ter             23000.00000       0.40000      18.00000      75.00000       1.00000       0.00700       0.00001       0.10000       0.00200       0.50000       0.30000       0.00200       0.05000  Triphenyltin_Hydroxid
dual                 200.00000       0.60000       5.00000      90.00000     530.00000       0.00700       0.00001       0.10000       0.00200       0.50000       0.30000       0.00200       0.05000  Metolachlor
dyfonate             870.00000       0.60000       2.50000      40.00000      16.90000       0.00700       0.00001       0.10000       0.00200       0.50000       0.30000       0.00200       0.05000  Fonofos
dylox                 10.00000       0.95000       3.00000      10.00000  120000.00000       0.00700       0.00001       0.10000       0.00200       0.50000       0.30000       0.00200       0.05000  Trichlorfon
dymid                210.00000       0.80000       5.00000      30.00000     260.00000       0.00700       0.00001       0.10000       0.00200       0.50000       0.30000       0.00200       0.05000  Diphenamid
dyrene              3000.00000       0.50000       5.00000       1.00000       8.00000       0.00700       0.00001       0.10000       0.00200       0.50000       0.30000       0.00200       0.05000  Anilazine
elgetol               20.00000       0.95000       8.00000      20.00000  100000.00000       0.00700       0.00001       0.10000       0.00200       0.50000       0.30000       0.00200       0.05000  DNOC_Sodium_Salt
epn                13000.00000       0.60000       5.00000       5.00000       0.50000       0.00700       0.00001       0.10000       0.00200       0.50000       0.30000       0.00200       0.05000  EPN
eradican             200.00000       0.75000       3.00000       6.00000     344.00000       0.00700       0.00001       0.10000       0.00200       0.50000       0.30000       0.00200       0.05000  EPTC
ethanox            10000.00000       0.65000       7.00000     150.00000       1.10000       0.00700       0.00001       0.10000       0.00200       0.50000       0.30000       0.00200       0.05000  Ethion
evik                 300.00000       0.65000       5.00000      60.00000     185.00000       0.00700       0.00001       0.10000       0.00200       0.50000       0.30000       0.00200       0.05000  Ametryn
evital               600.00000       0.50000      15.00000      90.00000      28.00000       0.00700       0.00001       0.10000       0.00200       0.50000       0.30000       0.00200       0.05000  Norflurazon
far-go              2400.00000       0.40000      15.00000      82.00000       4.00000       0.00700       0.00001       0.10000       0.00200       0.50000       0.30000       0.00200       0.05000  Triallate
fenatrol              20.00000       0.95000      30.00000     180.00000  500000.00000       0.00700       0.00001       0.10000       0.00200       0.50000       0.30000       0.00200       0.05000  Fenac
fenitox             2000.00000       0.90000       3.00000       8.00000      30.00000       0.00700       0.00001       0.10000       0.00200       0.50000       0.30000       0.00200       0.05000  Fenitrothion
fruitone              20.00000       0.95000       3.00000      10.00000  200000.00000       0.00700       0.00001       0.10000       0.00200       0.50000       0.30000       0.00200       0.05000  3_CPA_Sodium_Salt
fundal            100000.00000       0.90000       1.00000      60.00000  500000.00000       0.00700       0.00001       0.10000       0.00200       0.50000       0.30000       0.00200       0.05000  Chlordimeform_Hydrocl
funginex             540.00000       0.80000       5.00000      21.00000      30.00000       0.00700       0.00001       0.10000       0.00200       0.50000       0.30000       0.00200       0.05000  Triforine
furadan               22.00000       0.55000       2.00000      50.00000     351.00000       0.00700       0.00001       0.10000       0.00200       0.50000       0.30000       0.00200       0.05000  Carbofuran
fusilade            5700.00000       0.40000       4.00000      15.00000       2.00000       0.00700       0.00001       0.10000       0.00200       0.50000       0.30000       0.00200       0.05000  Fluazifop_P_Butyl
glean                 40.00000       0.75000      30.00000     160.00000    7000.00000       0.00700       0.00001       0.10000       0.00200       0.50000       0.30000       0.00200       0.05000  Chlorsulfuron
goal              100000.00000       0.40000       8.00000      35.00000       0.10000       0.00700       0.00001       0.10000       0.00200       0.50000       0.30000       0.00200       0.05000  Oxyfluorfen
guthion             1000.00000       0.65000       2.00000      10.00000      29.00000       0.00700       0.00001       0.10000       0.00200       0.50000       0.30000       0.00200       0.05000  Azinphos_Methyl
harmony               45.00000       0.80000       3.00000      12.00000    2400.00000       0.00700       0.00001       0.10000       0.00200       0.50000       0.30000       0.00200       0.05000  Thifensulfuron_Methyl
harvade               10.00000       0.80000       3.00000      10.00000    3000.00000       0.00700       0.00001       0.10000       0.00200       0.50000       0.30000       0.00200       0.05000  Dimethipin
hoelon             16000.00000       0.45000       8.00000      37.00000       0.80000       0.00700       0.00001       0.10000       0.00200       0.50000       0.30000       0.00200       0.05000  Diclofop_Methyl
hyvar                 32.00000       0.75000      20.00000      60.00000     700.00000       0.00700       0.00001       0.10000       0.00200       0.50000       0.30000       0.00200       0.05000  Bromacil
imidan               820.00000       0.90000       3.00000      19.00000      20.00000       0.00700       0.00001       0.10000       0.00200       0.50000       0.30000       0.00200       0.05000  Phosmet
isotox              1100.00000       0.05000       2.50000     400.00000       7.30000       0.00700       0.00001       0.10000       0.00200       0.50000       0.30000       0.00200       0.05000  Lindane
karate            180000.00000       0.40000       5.00000      30.00000       0.00000       0.00700       0.00001       0.10000       0.00200       0.50000       0.30000       0.00200       0.05000  Lambda_Cyhalothrin
karathan             550.00000       0.30000       8.00000      20.00000       4.00000       0.00700       0.00001       0.10000       0.00200       0.50000       0.30000       0.00200       0.05000  Dinocap
karmex               480.00000       0.45000      30.00000      90.00000      42.00000       0.00700       0.00001       0.10000       0.00200       0.50000       0.30000       0.00200       0.05000  Diuron
kelthane          180000.00000       0.05000       4.00000      60.00000       1.00000       0.00700       0.00001       0.10000       0.00200       0.50000       0.30000       0.00200       0.05000  Dicofol
kerb                 200.00000       0.30000      20.00000      60.00000      15.00000       0.00700       0.00001       0.10000       0.00200       0.50000       0.30000       0.00200       0.05000  Pronamide
krenite              150.00000       0.95000       4.00000       8.00000  1790000.00000       0.00700       0.00001       0.10000       0.00200       0.50000       0.30000       0.00200       0.05000  Fosamine_Ammon_Salt
lannate               72.00000       0.55000       0.50000      30.00000   58000.00000       0.00700       0.00001       0.10000       0.00200       0.50000       0.30000       0.00200       0.05000  Methomyl
larvadex             200.00000       0.95000      30.00000     150.00000  136000.00000       0.00700       0.00001       0.10000       0.00200       0.50000       0.30000       0.00200       0.05000  Cyromazine
larvin               350.00000       0.70000       4.00000       7.00000      19.10000       0.00700       0.00001       0.10000       0.00200       0.50000       0.30000       0.00200       0.05000  Thiodicarb
lasso                170.00000       0.40000       3.00000      15.00000     240.00000       0.00700       0.00001       0.10000       0.00200       0.50000       0.30000       0.00200       0.05000  Alachlor
limit               1000.00000       0.70000       8.00000      20.00000      10.00000       0.00700       0.00001       0.10000       0.00200       0.50000       0.30000       0.00200       0.05000  Amidochlor
lontrel                6.00000       0.95000       2.00000      30.00000  300000.00000       0.00700       0.00001       0.10000       0.00200       0.50000       0.30000       0.00200       0.05000  Clopyralid
lorox                400.00000       0.60000      15.00000      60.00000      75.00000       0.00700       0.00001       0.10000       0.00200       0.50000       0.30000       0.00200       0.05000  Linuron
lorsban             6070.00000       0.65000       3.30000      30.00000       0.40000       0.00700       0.00001       0.10000       0.00200       0.50000       0.30000       0.00200       0.05000  Clorpyrifos
manzate             1000.00000       0.65000       3.00000      12.00000       6.00000       0.00700       0.00001       0.10000       0.00200       0.50000       0.30000       0.00200       0.05000  Maneb
marlate            80000.00000       0.05000       6.00000     120.00000       0.10000       0.00700       0.00001       0.10000       0.00200       0.50000       0.30000       0.00200       0.05000  Methoxychlor
matacil              100.00000       0.90000       4.00000       6.00000     915.00000       0.00700       0.00001       0.10000       0.00200       0.50000       0.30000       0.00200       0.05000  Aminocarb
mavrik            1000000.00000       0.40000       7.00000      30.00000       0.00000       0.00700       0.00001       0.10000       0.00200       0.50000       0.30000       0.00200       0.05000  Fluvalinate
metasyst              10.00000       0.95000       3.00000      10.00000  1000000.00000       0.00700       0.00001       0.10000       0.00200       0.50000       0.30000       0.00200       0.05000  Oxydemeton_Methyl
milogard             154.00000       0.45000       5.00000     135.00000       8.60000       0.00700       0.00001       0.10000       0.00200       0.50000       0.30000       0.00200       0.05000  Propazine
miral                100.00000       0.65000       5.00000      34.00000      69.00000       0.00700       0.00001       0.10000       0.00200       0.50000       0.30000       0.00200       0.05000  Isazofos
mitac               1000.00000       0.45000       1.00000       2.00000       1.00000       0.00700       0.00001       0.10000       0.00200       0.50000       0.30000       0.00200       0.05000  Amitraz
modown             10000.00000       0.40000       3.00000       7.00000       0.40000       0.00700       0.00001       0.10000       0.00200       0.50000       0.30000       0.00200       0.05000  Bifenox
monitor                5.00000       0.95000       4.00000       6.00000  1000000.00000       0.00700       0.00001       0.10000       0.00200       0.50000       0.30000       0.00200       0.05000  Methamidophos
morestan            2300.00000       0.50000      10.00000      30.00000       1.00000       0.00700       0.00001       0.10000       0.00200       0.50000       0.30000       0.00200       0.05000  Oxythioquinox