reservoir.con: written by SWAT+ editor v2.3.3 on 2024-08-26 08:40 
      id  name                gis_id          area           lat           lon          elev       res               wst       cst      ovfl      rule   out_tot       obj_typ    obj_id       hyd_typ          frac  
       1  res1                     1    8165.87310     -20.68654      30.85163     700.00000         1     s20750s30750e         0         0         0         1           sdc        97           tot       1.00000  
       2  res2                     2    9081.35727     -20.20482      31.00374    1044.50000         2     s20250s31250e         0         0         0         1           sdc       208           tot       1.00000  
       3  res3                     3    3154.23545     -18.72937      32.49109    1104.50000         3     s18750s32250e         0         0         0         1           sdc       327           tot       1.00000  
       4  res4                     4   13214.07662     -19.12959      33.06687     619.33333         4     s19250s33250e         0         0         0         1           sdc       264           tot       1.00000  
