rout_unit.con: written by SWAT+ editor v2.3.3 on 2024-08-26 08:40 
      id  name                gis_id          area           lat           lon          elev       rtu               wst       cst      ovfl      rule   out_tot       obj_typ    obj_id       hyd_typ          frac  
       1  rtu0010                 10   11270.46845     -21.01031      34.92966      15.25954         1     s21250s34750e         0         0         0         2           sdc         1           tot       1.00000           aqu       797           rhg       1.00000  
       2  rtu0020                 20     946.37521     -21.04097      34.85011      12.45455         2     s21250s34750e         0         0         0         2           sdc         2           tot       1.00000           aqu       813           rhg       1.00000  
       3  rtu0030                 30   41038.27061     -21.12512      34.71573      49.55556         3     s21250s34750e         0         0         0         2           sdc         3           tot       1.00000           aqu       799           rhg       1.00000  
       4  rtu0040                 40   24949.89199     -21.07635      34.60689      55.96207         4     s21250s34750e         0         0         0         2           sdc         4           tot       1.00000           aqu       805           rhg       1.00000  
       5  rtu0050                 50   12733.04832     -21.08655      34.51296      64.56081         5     s21250s34750e         0         0         0         2           sdc         5           tot       1.00000           aqu       812           rhg       1.00000  
       6  rtu0060                 60    8689.44514     -21.17682      34.49698      80.12871         6     s21250s34250e         0         0         0         2           sdc         6           tot       1.00000           aqu       830           rhg       1.00000  
       7  rtu0070                 70    2236.88687     -21.20275      34.46529      82.07692         7     s21250s34250e         0         0         0         2           sdc         7           tot       1.00000           aqu       849           rhg       1.00000  
       8  rtu0080                 80   19099.57249     -21.27172      34.44608      93.40991         8     s21250s34250e         0         0         0         2           sdc         8           tot       1.00000           aqu       859           rhg       1.00000  
       9  rtu0090                 90   19357.67482     -21.33333      34.34424      87.77778         9     s21250s34250e         0         0         0         2           sdc         9           tot       1.00000           aqu       865           rhg       1.00000  
      10  rtu0100                100   75882.08528     -21.28753      34.13597      83.94444        10     s21250s34250e         0         0         0         2           sdc        10           tot       1.00000           aqu       847           rhg       1.00000  
      11  rtu0110                110   32090.72314     -21.37953      33.92270      92.51475        11     s21250s33750e         0         0         0         2           sdc        11           tot       1.00000           aqu       875           rhg       1.00000  
      12  rtu0120                120   60912.15009     -21.41178      33.69108     101.37006        12     s21250s33750e         0         0         0         2           sdc        12           tot       1.00000           aqu       886           rhg       1.00000  
      13  rtu0130                130   28907.46106     -21.34980      33.46319     137.99107        13     s21250s33250e         0         0         0         2           sdc        13           tot       1.00000           aqu       867           rhg       1.00000  
      14  rtu0140                140    4903.94429     -21.45327      33.43764     103.82456        14     s21250s33250e         0         0         0         2           sdc        14           tot       1.00000           aqu       903           rhg       1.00000  
      15  rtu0150                150    3011.19386     -21.48265      33.40231     112.68571        15     s21250s33250e         0         0         0         2           sdc        15           tot       1.00000           aqu       917           rhg       1.00000  
      16  rtu0160                160   16174.41274     -21.43281      33.30525     126.89894        16     s21250s33250e         0         0         0         2           sdc        16           tot       1.00000           aqu       880           rhg       1.00000  
      17  rtu0170                170    1720.68221     -21.48527      33.25133     102.20000        17     s21250s33250e         0         0         0         2           sdc        17           tot       1.00000           aqu       921           rhg       1.00000  
      18  rtu0180                180    4215.67140     -21.46685      33.21093     113.14286        18     s21250s33250e         0         0         0         2           sdc        18           tot       1.00000           aqu       902           rhg       1.00000  
      19  rtu0190                190   70892.10688     -21.54183      33.03328     144.18204        19     s21750s33250e         0         0         0         2           sdc        19           tot       1.00000           aqu       908           rhg       1.00000  
      20  rtu0200                200   30714.17737     -21.47907      32.79728     155.52941        20     s21250s32750e         0         0         0         2           sdc        20           tot       1.00000           aqu       889           rhg       1.00000  
      21  rtu0210                210   11442.53667     -21.42037      32.68704     155.78947        21     s21250s32750e         0         0         0         2           sdc        21           tot       1.00000           aqu       893           rhg       1.00000  
      22  rtu0220                220   32176.75725     -21.37594      32.52403     186.30214        22     s21250s32750e         0         0         0         2           sdc        22           tot       1.00000           aqu       877           rhg       1.00000  
      23  rtu0230                230    4387.73962     -21.32119      32.41623     190.11765        23     s21250s32250e         0         0         0         2           sdc        23           tot       1.00000           aqu       874           rhg       1.00000  
      24  rtu0240                240    9463.75213     -21.29350      32.33921     202.67273        24     s21250s32250e         0         0         0         2           sdc        24           tot       1.00000           aqu       864           rhg       1.00000  
      25  rtu0250                250   43877.39625     -21.28557      32.20646     294.64314        25     s21250s32250e         0         0         0         2           sdc        25           tot       1.00000           aqu       843           rhg       1.00000  
      26  rtu0260                260   27961.08585     -21.38755      32.09614     288.25846        26     s21250s32250e         0         0         0         2           sdc        26           tot       1.00000           aqu       873           rhg       1.00000  
      27  rtu0270                270   16260.44685     -21.20997      32.31745     289.37566        27     s21250s32250e         0         0         0         2           sdc        27           tot       1.00000           aqu       840           rhg       1.00000  
      28  rtu0280                280    6882.72882     -21.13557      32.26722     378.68750        28     s21250s32250e         0         0         0         2           sdc        28           tot       1.00000           aqu       825           rhg       1.00000  
      29  rtu0290                290     516.20466     -21.08222      32.27230     343.66667        29     s21250s32250e         0         0         0         2           sdc        29           tot       1.00000           aqu       822           rhg       1.00000  
      30  rtu0300                300   26412.47186     -21.34792      31.95756     329.65472        30     s21250s31750e         0         0         0         2           sdc        30           tot       1.00000           aqu       868           rhg       1.00000  
      31  rtu0310                310     602.23877     -21.27810      31.89415     303.42857        31     s21250s31750e         0         0         0         2           sdc        31           tot       1.00000           aqu       872           rhg       1.00000  
      32  rtu0320                320   17120.78795     -21.24045      31.85043     324.98995        32     s21250s31750e         0         0         0         2           sdc        32           tot       1.00000           aqu       852           rhg       1.00000  
      33  rtu0330                330    1032.40932     -21.17800      31.84896     312.16667        33     s21250s31750e         0         0         0         2           sdc        33           tot       1.00000           aqu       845           rhg       1.00000  
      34  rtu0340                340   30714.17737     -21.02158      32.16077     381.87955        34     s21250s32250e         0         0         0         2           sdc        34           tot       1.00000           aqu       784           rhg       1.00000  
      35  rtu0350                350   33295.20068     -21.16817      31.72522     349.57364        35     s21250s31750e         0         0         0         2           sdc        35           tot       1.00000           aqu       817           rhg       1.00000  
      36  rtu0360                360     516.20466     -21.22321      31.66614     329.00000        36     s21250s31750e         0         0         0         2           sdc        36           tot       1.00000           aqu       861           rhg       1.00000  
      37  rtu0370                370   14023.55998     -19.93151      34.67190      11.28834        37     s19750s34250e         0         0         0         2           sdc        37           tot       1.00000           aqu       483           rhg       1.00000  
      38  rtu0380                380    1032.40932     -19.87379      34.57319      10.33333        38     s19750s34250e         0         0         0         2           sdc        38           tot       1.00000           aqu       480           rhg       1.00000  
      39  rtu0390                390   10668.22968     -19.59164      34.47486      15.69355        39     s19750s34250e         0         0         0         2           sdc        39           tot       1.00000           aqu       388           rhg       1.00000  
      40  rtu0400                400    2322.92098     -19.87394      34.53627      10.18519        40     s19750s34250e         0         0         0         2           sdc        40           tot       1.00000           aqu       475           rhg       1.00000  
      41  rtu0410                410    9033.58158     -21.19574      31.60934     356.22857        41     s21250s31750e         0         0         0         2           sdc        41           tot       1.00000           aqu       835           rhg       1.00000  
      42  rtu0420                420   34155.54179     -20.81061      32.16898     416.01763        42     s20750s32250e         0         0         0         2           sdc        42           tot       1.00000           aqu       723           rhg       1.00000  
      43  rtu0430                430    9033.58158     -21.18943      31.51035     371.43810        43     s21250s31750e         0         0         0         2           sdc        43           tot       1.00000           aqu       828           rhg       1.00000  
      44  rtu0440                440   12560.98010     -20.68234      32.29049     430.10959        44     s20750s32250e         0         0         0         2           sdc        44           tot       1.00000           aqu       709           rhg       1.00000  
      45  rtu0450                450    5076.01251     -21.12811      31.49318     370.03390        45     s21250s31250e         0         0         0         2           sdc        45           tot       1.00000           aqu       821           rhg       1.00000  
      46  rtu0460                460   36134.32632     -19.47878      34.60425      33.30238        46     s19250s34750e         0         0         0         2           sdc        46           tot       1.00000           aqu       346           rhg       1.00000  
      47  rtu0470                470   13507.35532     -20.60582      32.31904     463.39490        47     s20750s32250e         0         0         0         2           sdc        47           tot       1.00000           aqu       680           rhg       1.00000  
      48  rtu0480                480   34929.84878     -19.89034      34.35967      38.28325        48     s19750s34250e         0         0         0         2           sdc        48           tot       1.00000           aqu       455           rhg       1.00000  
      49  rtu0490                490    1720.68221     -20.53064      32.28662     414.50000        49     s20750s32250e         0         0         0         2           sdc        49           tot       1.00000           aqu       668           rhg       1.00000  
      50  rtu0500                500   24433.68732     -21.20159      31.37620     399.27817        50     s21250s31250e         0         0         0         2           sdc        50           tot       1.00000           aqu       832           rhg       1.00000  
      51  rtu0510                510   12560.98010     -19.99205      34.29082      48.68493        51     s19750s34250e         0         0         0         2           sdc        51           tot       1.00000           aqu       503           rhg       1.00000  
      52  rtu0520                520   43877.39625     -19.31584      34.60265      44.50392        52     s19250s34750e         0         0         0         2           sdc        52           tot       1.00000           aqu       299           rhg       1.00000  
      53  rtu0530                530    8689.44514     -21.13115      31.28628     408.11881        53     s21250s31250e         0         0         0         2           sdc        53           tot       1.00000           aqu       819           rhg       1.00000  
      54  rtu0540                540    2667.05742     -19.19767      34.53467      17.35484        54     s19250s34750e         0         0         0         2           sdc        54           tot       1.00000           aqu       290           rhg       1.00000  
      55  rtu0550                550   14797.86697     -19.98764      34.16709      76.04070        55     s19750s34250e         0         0         0         2           sdc        55           tot       1.00000           aqu       489           rhg       1.00000  
      56  rtu0560                560    2408.95509     -19.16147      34.53784      19.89286        56     s19250s34750e         0         0         0         2           sdc        56           tot       1.00000           aqu       280           rhg       1.00000  
      57  rtu0570                570   12647.01421     -21.19588      31.17160     438.51701        57     s21250s31250e         0         0         0         2           sdc        57           tot       1.00000           aqu       836           rhg       1.00000  
      58  rtu0580                580     258.10233     -19.14136      34.53009      18.66667        58     s19250s34750e         0         0         0         2           sdc        58           tot       1.00000           aqu       274           rhg       1.00000  
      59  rtu0590                590    3355.33030     -21.14556      31.16992     416.84615        59     s21250s31250e         0         0         0         2           sdc        59           tot       1.00000           aqu       831           rhg       1.00000  
      60  rtu0600                600   18583.36782     -20.33344      32.32702     454.04630        60     s20250s32250e         0         0         0         2           sdc        60           tot       1.00000           aqu       599           rhg       1.00000  
      61  rtu0610                610    1462.57987     -20.25724      32.31417     447.94118        61     s20250s32250e         0         0         0         2           sdc        61           tot       1.00000           aqu       595           rhg       1.00000  
      62  rtu0620                620   22971.10745     -19.98901      34.08602     106.10861        62     s19750s34250e         0         0         0         2           sdc        62           tot       1.00000           aqu       493           rhg       1.00000  
      63  rtu0630                630   15916.31040     -21.09711      31.07126     450.56216        63     s21250s31250e         0         0         0         2           sdc        63           tot       1.00000           aqu       811           rhg       1.00000  
      64  rtu0640                640    3957.56907     -20.20465      32.33444     462.13043        64     s20250s32250e         0         0         0         2           sdc        64           tot       1.00000           aqu       580           rhg       1.00000  
      65  rtu0650                650     430.17055     -20.17552      32.32457     456.40000        65     s20250s32250e         0         0         0         2           sdc        65           tot       1.00000           aqu       578           rhg       1.00000  
      66  rtu0660                660    4559.80785     -21.01521      31.06313     459.41509        66     s21250s31250e         0         0         0         2           sdc        66           tot       1.00000           aqu       795           rhg       1.00000  
      67  rtu0670                670   10238.05912     -19.85931      34.05616      55.63025        67     s19750s34250e         0         0         0         2           sdc        67           tot       1.00000           aqu       457           rhg       1.00000  
      68  rtu0680                680    1290.51165     -19.83341      34.01125      36.66667        68     s19750s34250e         0         0         0         2           sdc        68           tot       1.00000           aqu       464           rhg       1.00000  
      69  rtu0690                690   20648.18647     -20.95004      30.98154     512.12500        69     s20750s30750e         0         0         0         2           sdc        69           tot       1.00000           aqu       765           rhg       1.00000  
      70  rtu0700                700   23659.38033     -20.06685      32.33179     538.92727        70     s20250s32250e         0         0         0         2           sdc        70           tot       1.00000           aqu       526           rhg       1.00000  
      71  rtu0710                710   44565.66913     -19.05798      34.37117      34.67761        71     s19250s34250e         0         0         0         2           sdc        71           tot       1.00000           aqu       236           rhg       1.00000  
      72  rtu0720                720    2408.95509     -19.98188      32.36008     534.50000        72     s19750s32250e         0         0         0         2           sdc        72           tot       1.00000           aqu       514           rhg       1.00000  
      73  rtu0730                730    5248.08073     -20.93991      30.85062     548.40984        73     s20750s30750e         0         0         0         2           sdc        73           tot       1.00000           aqu       778           rhg       1.00000  
      74  rtu0740                740    7312.89937     -19.08645      34.57720      41.88235        74     s19250s34750e         0         0         0         2           sdc        74           tot       1.00000           aqu       252           rhg       1.00000  
      75  rtu0750                750    1290.51165     -19.94786      32.34960     502.13333        75     s19750s32250e         0         0         0         2           sdc        75           tot       1.00000           aqu       495           rhg       1.00000  
      76  rtu0760                760     860.34110     -20.91239      30.80723     571.40000        76     s20750s30750e         0         0         0         2           sdc        76           tot       1.00000           aqu       777           rhg       1.00000  
      77  rtu0770                770   13421.32121     -21.10059      31.41488     392.52564        77     s21250s31250e         0         0         0         2           sdc        77           tot       1.00000           aqu       814           rhg       1.00000  
      78  rtu0780                780   10926.33201     -18.97051      34.15814     130.63780        78     s18750s34250e         0         0         0         2           sdc        78           tot       1.00000           aqu       210           rhg       1.00000  
      79  rtu0790                790    7571.00171     -21.05213      31.36142     412.25000        79     s21250s31250e         0         0         0         2           sdc        79           tot       1.00000           aqu       800           rhg       1.00000  
      80  rtu0800                800   14883.90108     -18.99594      34.54630      35.67630        80     s18750s34750e         0         0         0         2           sdc        80           tot       1.00000           aqu       226           rhg       1.00000  
      81  rtu0810                810   57040.61512     -19.89758      33.84170      94.89442        81     s19750s33750e         0         0         0         2           sdc        81           tot       1.00000           aqu       462           rhg       1.00000  
      82  rtu0820                820     774.30699     -18.94551      34.53844      22.77778        82     s18750s34750e         0         0         0         2           sdc        82           tot       1.00000           aqu       224           rhg       1.00000  
      83  rtu0830                830    4903.94429     -20.98396      31.38560     426.45614        83     s20750s31250e         0         0         0         2           sdc        83           tot       1.00000           aqu       791           rhg       1.00000  
      84  rtu0840                840    6280.49005     -20.90378      30.74357     597.39726        84     s20750s30750e         0         0         0         2           sdc        84           tot       1.00000           aqu       767           rhg       1.00000  
      85  rtu0850                850   14969.93519     -21.39875      34.99080      34.16667        85     s21250s34750e         0         0         0         2           sdc        85           tot       1.00000           aqu       892           rhg       1.00000  
      86  rtu0860                860    2494.98920     -20.01240      33.78510     105.44828        86     s20250s33750e         0         0         0         2           sdc        86           tot       1.00000           aqu       524           rhg       1.00000  
      87  rtu0870                870   37596.90620     -19.84774      32.42982     714.95423        87     s19750s32250e         0         0         0         2           sdc        87           tot       1.00000           aqu       454           rhg       1.00000  
      88  rtu0880                880    5506.18306     -20.93216      31.35520     434.82812        88     s20750s31250e         0         0         0         2           sdc        88           tot       1.00000           aqu       769           rhg       1.00000  
      89  rtu0890                890   23143.17567     -18.97669      34.05890     199.82156        89     s18750s34250e         0         0         0         2           sdc        89           tot       1.00000           aqu       213           rhg       1.00000  
      90  rtu0900                900   10840.29790     -20.07523      33.75485     115.14286        90     s20250s33750e         0         0         0         2           sdc        90           tot       1.00000           aqu       537           rhg       1.00000  
      91  rtu0910                910   25724.19898     -18.88275      34.61092      75.62207        91     s18750s34750e         0         0         0         2           sdc        91           tot       1.00000           aqu       185           rhg       1.00000  
      92  rtu0920                920    4559.80785     -18.91356      34.00331     255.66038        92     s18750s34250e         0         0         0         2           sdc        92           tot       1.00000           aqu       207           rhg       1.00000  
      93  rtu0930                930    5678.25128     -20.90653      31.27901     444.53030        93     s20750s31250e         0         0         0         2           sdc        93           tot       1.00000           aqu       768           rhg       1.00000  
      94  rtu0940                940   18841.47015     -21.49854      35.05748      27.30137        94     s21750s35250e         0         0         0         2           sdc        94           tot       1.00000           aqu       907           rhg       1.00000  
      95  rtu0950                950   24003.51677     -20.81891      30.69433     675.72043        95     s20750s30750e         0         0         0         2           sdc        95           tot       1.00000           aqu       725           rhg       1.00000  
      96  rtu0960                960   22368.86868     -20.14739      33.70928     144.63462        96     s20250s33750e         0         0         0         2           sdc        96           tot       1.00000           aqu       544           rhg       1.00000  
      97  rtu0970                970   16518.54918     -20.82051      30.80509     662.74479        97     s20750s30750e         0         0         0         2           sdc        97           tot       1.00000           aqu       722           rhg       1.00000  
      98  rtu0980                980   27014.71063     -19.73409      32.30721     600.97452        98     s19750s32250e         0         0         0         2           sdc        98           tot       1.00000           aqu       409           rhg       1.00000  
      99  rtu0990                990    5420.14895     -20.57795      34.67654      12.19048        99     s20750s34750e         0         0         0         2           sdc        99           tot       1.00000           aqu       677           rhg       1.00000  
     100  rtu1000               1000    9721.85446     -20.83181      30.57049     676.01770       100     s20750s30750e         0         0         0         2           sdc       100           tot       1.00000           aqu       742           rhg       1.00000  
     101  rtu1010               1010   21078.35702     -20.80051      31.19447     534.22449       101     s20750s31250e         0         0         0         2           sdc       101           tot       1.00000           aqu       740           rhg       1.00000  
     102  rtu1020               1020    6452.55827     -20.73216      30.82342     724.45333       102     s20750s30750e         0         0         0         2           res         1           tot       1.00000           aqu       722           rhg       1.00000  
     103  rtu1030               1030    2667.05742     -20.63420      34.65064      20.16129       103     s20750s34750e         0         0         0         2           sdc       102           tot       1.00000           aqu       704           rhg       1.00000  
     104  rtu1040               1040    4817.91018     -19.79881      33.92548      57.87500       104     s19750s33750e         0         0         0         2           sdc       103           tot       1.00000           aqu       451           rhg       1.00000  
     105  rtu1050               1050   33553.30301     -21.61791      35.12273      29.72308       105     s21750s35250e         0         0         0         2           sdc       104           tot       1.00000           aqu       929           rhg       1.00000  
     106  rtu1060               1060   26240.40364     -20.24642      33.67914     161.76066       106     s20250s33750e         0         0         0         2           sdc       105           tot       1.00000           aqu       568           rhg       1.00000  
     107  rtu1070               1070   26670.57419     -19.60532      32.28381     702.58387       107     s19750s32250e         0         0         0         2           sdc       106           tot       1.00000           aqu       366           rhg       1.00000  
     108  rtu1080               1080   37941.04264     -18.82800      33.89939     361.49887       108     s18750s33750e         0         0         0         2           sdc       107           tot       1.00000           aqu       150           rhg       1.00000  
     109  rtu1090               1090   13765.45765     -20.79488      30.53827     687.56250       109     s20750s30750e         0         0         0         2           sdc       108           tot       1.00000           aqu       735           rhg       1.00000  
     110  rtu1100               1100    5678.25128     -20.74247      31.19396     546.28788       110     s20750s31250e         0         0         0         2           sdc       109           tot       1.00000           aqu       730           rhg       1.00000  
     111  rtu1110               1110    2064.81865     -18.80759      33.84539     357.62500       111     s18750s33750e         0         0         0         2           sdc       110           tot       1.00000           aqu       176           rhg       1.00000  