rout_unit.def: written by SWAT+ editor v2.3.3 on 2024-08-26 08:40 
      id              name  elem_tot  elements  
       1           rtu0010         2      4341     -4348  
       2           rtu0020         2      4440     -4442  
       3           rtu0030         2      4352     -4365  
       4           rtu0040         2      4397     -4402  
       5           rtu0050         2      4433     -4439  
       6           rtu0060         2      4536     -4540  
       7           rtu0070         2      4644     -4645  
       8           rtu0080         2      4697     -4701  
       9           rtu0090         2      4733     -4737  
      10           rtu0100         2      4632     -4642  
      11           rtu0110         2      4795     -4800  
      12           rtu0120         2      4846     -4851  
      13           rtu0130         2      4743     -4751  
      14           rtu0140         2      4932     -4933  
      15           rtu0150         2      4980     -4981  
      16           rtu0160         2      4820     -4827  
      17           rtu0170         2      4990     -4991  
      18           rtu0180         2      4927     -4931  
      19           rtu0190         2      4946     -4958  
      20           rtu0200         2      4863     -4868  
      21           rtu0210         2      4886     -4889  
      22           rtu0220         2      4805     -4812  
      23           rtu0230         2      4788     -4794  
      24           rtu0240         2      4727     -4732  
      25           rtu0250         2      4605     -4616  
      26           rtu0260         2      4780     -4787  
      27           rtu0270         2      4585     -4598  
      28           rtu0280         2      4511     -4514  
      29           rtu0290         2      4493     -4497  
      30           rtu0300         2      4752     -4757  
      31           rtu0310         1      4779  
      32           rtu0320         2      4661     -4665  
      33           rtu0330         2      4621     -4624  
      34           rtu0340         2      4266     -4279  
      35           rtu0350         2      4460     -4469  
      36           rtu0360         2      4712     -4714  
      37           rtu0370         2      2578     -2583  
      38           rtu0380         1      2565  
      39           rtu0390         2      2059     -2067  
      40           rtu0400         2      2538     -2539  
      41           rtu0410         2      4563     -4572  
      42           rtu0420         2      3984     -3994  
      43           rtu0430         2      4530     -4534  
      44           rtu0440         2      3917     -3925  
      45           rtu0450         2      4489     -4492  
      46           rtu0460         2      1805     -1815  
      47           rtu0470         2      3768     -3778  
      48           rtu0480         2      2418     -2427  
      49           rtu0490         2      3708     -3713  
      50           rtu0500         2      4545     -4552  
      51           rtu0510         2      2715     -2721  
      52           rtu0520         2      1539     -1544  
      53           rtu0530         2      4477     -4480  
      54           rtu0540         2      1489     -1491  
      55           rtu0550         2      2613     -2624  
      56           rtu0560         2      1421     -1423  
      57           rtu0570         2      4573     -4576  
      58           rtu0580         1      1397  
      59           rtu0590         2      4541     -4544  
      60           rtu0600         2      3325     -3331  
      61           rtu0610         2      3289     -3293  
      62           rtu0620         2      2643     -2652  
      63           rtu0630         2      4428     -4432  
      64           rtu0640         2      3191     -3195  
      65           rtu0650         2      3177     -3178  
      66           rtu0660         2      4332     -4336  
      67           rtu0670         2      2433     -2442  
      68           rtu0680         2      2474     -2476  
      69           rtu0690         2      4171     -4175  
      70           rtu0700         2      2845     -2857  
      71           rtu0710         2      1156     -1171  
      72           rtu0720         2      2781     -2784  
      73           rtu0730         2      4235     -4238  
      74           rtu0740         2      1262     -1265  
      75           rtu0750         2      2671     -2674  
      76           rtu0760         2      4233     -4234  
      77           rtu0770         2      4443     -4446  
      78           rtu0780         2      1002     -1004  
      79           rtu0790         2      4366     -4370  
      80           rtu0800         2      1098     -1099  
      81           rtu0810         2      2462     -2470  
      82           rtu0820         1      1093  
      83           rtu0830         2      4311     -4317  
      84           rtu0840         2      4179     -4183  
      85           rtu0850         2      4879     -4885  
      86           rtu0860         2      2838     -2839  
      87           rtu0870         2      2404     -2417  
      88           rtu0880         2      4188     -4192  
      89           rtu0890         2      1021     -1024  
      90           rtu0900         2      2912     -2913  
      91           rtu0910         2       878      -882  
      92           rtu0920         2       991      -992  
      93           rtu0930         2      4184     -4187  
      94           rtu0940         2      4939     -4945  
      95           rtu0950         2      4004     -4011  
      96           rtu0960         2      2960     -2964  
      97           rtu0970         2      3981     -3983  
      98           rtu0980         2      2146     -2150  
      99           rtu0990         2      3751     -3755  
     100           rtu1000         2      4074     -4078  
     101           rtu1010         2      4067     -4071  
     102           rtu1020         2      3978     -3980  
     103           rtu1030         2      3891     -3894  
     104           rtu1040         2      2383     -2388  
     105           rtu1050         2      5016     -5028  
     106           rtu1060         2      3111     -3113  
     107           rtu1070         2      1933     -1940  
     108           rtu1080         2       703      -704  
     109           rtu1090         2      4048     -4052  
     110           rtu1100         2      4031     -4033  
     111           rtu1110         1       819  
     112           rtu1120         2      3669     -3670  
     113           rtu1130         2      2334     -2335  
     114           rtu1140         2      3235     -3238  
     115           rtu1150         2      1899     -1903  
     116           rtu1160         2      1986     -1987  
     117           rtu1170         2       459      -472  
     118           rtu1180         1      2361  
     119           rtu1190         2      3660     -3668  
     120           rtu1200         2      2086     -2087  
     121           rtu1210         1       544  
     122           rtu1220         2      3081     -3083  
     123           rtu1230         2      1894     -1898  
     124           rtu1240         2      3904     -3906  
     125           rtu1250         2      3836     -3845  
     126           rtu1260         2      2557     -2564  
     127           rtu1270         2      5071     -5078  
     128           rtu1280         2      3875     -3881  
     129           rtu1290         2      3355     -3357  
     130           rtu1300         1      2107  
     131           rtu1310         2      3823     -3826  
     132           rtu1320         2      1665     -1668  
     133           rtu1330         2       317      -323  
     134           rtu1340         1      2113  
     135           rtu1350         1       429  
     136           rtu1360         1       619  
     137           rtu1370         2      3756     -3760  
     138           rtu1380         1       656  
     139           rtu1390         2      3615     -3621  
     140           rtu1400         2      3448     -3457  
     141           rtu1410         2      2504     -2513  
     142           rtu1420         2      2094     -2096  
     143           rtu1430         2      1662     -1664  
     144           rtu1440         2      4481     -4488  
     145           rtu1450         2      5099     -5108  
     146           rtu1460         2      3488     -3493  
     147           rtu1470         2      1635     -1638  
     148           rtu1480         2      3427     -3429  
     149           rtu1490         2      2325     -2327  
     150           rtu1500         2       645      -646  
     151           rtu1510         2      2031     -2046  
     152           rtu1520         2      2029     -2030  
     153           rtu1530         2      1545     -1546  
     154           rtu1540         2      3947     -3950  
     155           rtu1550         2      4337     -4340  
     156           rtu1560         2      1990     -1992  
     157           rtu1570         2      3396     -3399  
     158           rtu1580         2      2457     -2461  
     159           rtu1590         2      4142     -4143  
     160           rtu1600         2      3470     -3480  
     161           rtu1610         2      1496     -1502  
     162           rtu1620         2       553      -554  
     163           rtu1630         2      5110     -5115  
     164           rtu1640         2      3416     -3418  
     165           rtu1650         2      2608     -2612  
     166           rtu1660         2       381      -386  
     167           rtu1670         1      3469  
     168           rtu1680         2      1479     -1483  
     169           rtu1690         2      1866     -1870  
     170           rtu1700         2       622      -623  
     171           rtu1710         2      3432     -3433  
     172           rtu1720         2      2006     -2010  
     173           rtu1730         2      3458     -3460  
     174           rtu1740         2      3243     -3247  
     175           rtu1750         2      1731     -1736  
     176           rtu1760         2      3685     -3693  
     177           rtu1770         2      1362     -1368  
     178           rtu1780         2      3228     -3234  
     179           rtu1790         2      3422     -3426  
     180           rtu1800         1       589  
     181           rtu1810         2      1128     -1132  
     182           rtu1820         1      5133  
     183           rtu1830         2      4239     -4243  
     184           rtu1840         2      2572     -2577  
     185           rtu1850         2      3745     -3750  
     186           rtu1860         2      2108     -2112  
     187           rtu1870         2      4176     -4178  
     188           rtu1880         2      1251     -1255  
     189           rtu1890         1      2714  
     190           rtu1900         2      1871     -1873  
     191           rtu1910         2      1179     -1184  
     192           rtu1920         2       717      -719  
     193           rtu1930         1      2768  
     194           rtu1940         2      1626     -1632  
     195           rtu1950         2      1783     -1785  
     196           rtu1960         2      3638     -3641  
     197           rtu1970         2      2625     -2628  
     198           rtu1980         2       815      -818  
     199           rtu1990         2      3023     -3028  
     200           rtu2000         2      3590     -3593  
     201           rtu2010         2      1198     -1206  
     202           rtu2020         2      1140     -1146  
     203           rtu2030         2      1660     -1661  
     204           rtu2040         2      2992     -2997  
     205           rtu2050         2       664      -665  
     206           rtu2060         2      2502     -2503  
     207           rtu2070         2      3208     -3217  
     208           rtu2080         2      2840     -2844  
     209           rtu2090         2      3310     -3324  
     210           rtu2110         2      2452     -2456  
     211           rtu2120         1       707  
     212           rtu2130         2       156      -162  
     213           rtu2140         1      5134  
     214           rtu2150         2       889      -892  
     215           rtu2160         2      1737     -1739  
     216           rtu2170         2      3346     -3353  
     217           rtu2180         2      4129     -4133  
     218           rtu2190         2      2896     -2899  
     219           rtu2200         2      1372     -1377  
     220           rtu2210         2       997     -1001  
     221           rtu2220         2      3790     -3794  
     222           rtu2230         2      3093     -3099  
     223           rtu2240         2      3520     -3523  
     224           rtu2250         2      2471     -2473  
     225           rtu2260         2      1369     -1371  
     226           rtu2270         2      1152     -1155  
     227           rtu2280         2       981      -984  
     228           rtu2290         2       391      -393  
     229           rtu2300         2       119      -121  
     230           rtu2310         1      2837  
     231           rtu2320         2      1529     -1532  
     232           rtu2330         2      3786     -3787  
     233           rtu2340         2      2967     -2974  
     234           rtu2350         2      3003     -3004  
     235           rtu2360         2       571      -572  
     236           rtu2370         2      2826     -2829  
     237           rtu2380         2       188      -191  
     238           rtu2390         2      3000     -3002  
     239           rtu2400         2      3657     -3659  
     240           rtu2410         2      3500     -3511  
     241           rtu2420         2       785      -789  
     242           rtu2430         2      2683     -2686  
     243           rtu2440         2      1563     -1564  
     244           rtu2450         2       473      -474  
     245           rtu2460         2      3724     -3732  
     246           rtu2470         2       457      -458  
     247           rtu2480         2       768      -772  
     248           rtu2490         2      4828     -4829  
     249           rtu2500         2      3581     -3583  
     250           rtu2510         2      1394     -1396  
     251           rtu2520         2      3942     -3946  
     252           rtu2530         2       685      -687  
     253           rtu2540         2      3862     -3867  
     254           rtu2550         2      3642     -3647  
     255           rtu2560         2      3718     -3720  
     256           rtu2570         2      3430     -3431  
     257           rtu2580         2      4415     -4422  
     258           rtu2590         2      3461     -3464  
     259           rtu2600         2      2584     -2595  
     260           rtu2610         2       613      -617  
     261           rtu2620         2      2212     -2216  
     262           rtu2630         1       438  
     263           rtu2640         1      4938  
     264           rtu2650         2      4676     -4677  
     265           rtu2660         2      4053     -4055  
     266           rtu2670         2      2745     -2750  
     267           rtu2680         2      1419     -1420  
     268           rtu2690         2      1062     -1073  
     269           rtu2700         2      1683     -1687  
     270           rtu2710         2      1417     -1418  
     271           rtu2720         2      4104     -4105  
     272           rtu2730         1      2726  
     273           rtu2740         2      5140     -5145  
     274           rtu2750         2      3084     -3087  
     275           rtu2760         2      2998     -2999  
     276           rtu2770         1      1118  
     277           rtu2780         2      1467     -1478  
     278           rtu2790         2       781      -784  
     279           rtu2800         1      5151  
     280           rtu2810         1      3868  
     281           rtu2820         2      3622     -3627  
     282           rtu2830         1      2682  
     283           rtu2840         2      2519     -2523  
     284           rtu2850         2       985      -988  
     285           rtu2860         2      3383     -3384  
     286           rtu2870         2      1111     -1117  
     287           rtu2880         2      3362     -3367  
     288           rtu2890         2      2305     -2309  
     289           rtu2900         2      2600     -2603  
     290           rtu2910         2      1998     -2001  
     291           rtu2920         2        68       -70  
     292           rtu2930         1       354  
     293           rtu2940         2      3393     -3395  
     294           rtu2950         2      1259     -1261  
     295           rtu2960         2       901      -903  
     296           rtu2970         2      4599     -4601  
     297           rtu2980         2      3882     -3889  
     298           rtu2990         2      1256     -1258  
     299           rtu3000         2        53       -57  
     300           rtu3010         2      4079     -4082  
     301           rtu3020         2       584      -588  
     302           rtu3030         1       485  
     303           rtu3040         2      1874     -1877  
     304           rtu3050         2      1639     -1648  
     305           rtu3060         2       919      -924  
     306           rtu3070         2        77       -79  
     307           rtu3080         2      4816     -4819  
     308           rtu3090         2      4772     -4778  
     309           rtu3100         2      2635     -2642  
     310           rtu3110         2      2018     -2023  
     311           rtu3120         2      2528     -2531  
     312           rtu3130         1       751  
     313           rtu3140         2      2233     -2236  
     314           rtu3150         2       925      -929  
     315           rtu3160         2       777      -780  
     316           rtu3170         1      4937  
     317           rtu3180         2      2861     -2867  
     318           rtu3190         2       820      -823  
     319           rtu3200         2      2789     -2792  
     320           rtu3210         2       475      -480  
     321           rtu3220         2      3377     -3379  
     322           rtu3230         2       515      -517  
     323           rtu3240         1      5039  
     324           rtu3250         2      2237     -2241  
     325           rtu3260         2      1699     -1703  
     326           rtu3270         2      4765     -4771  
     327           rtu3280         2      2448     -2451  
     328           rtu3290         2       757      -764  
     329           rtu3300         2       508      -512  
     330           rtu3310         2      4090     -4091  
     331           rtu3320         2      4016     -4021  
     332           rtu3330         1       397  
     333           rtu3340         2       746      -750  
     334           rtu3350         1      5064  
     335           rtu3360         2       989      -990  
     336           rtu3380         1      3354  
     337           rtu3390         2      2931     -2942  
     338           rtu3400         2      2100     -2101  
     339           rtu3410         1      1030  
     340           rtu3420         2      4162     -4163  
     341           rtu3430         2      2687     -2691  
     342           rtu3440         2      4971     -4972  
     343           rtu3450         2      3926     -3928  
     344           rtu3460         2      3173     -3176  
     345           rtu3470         2      1977     -1979  
     346           rtu3480         2      1192     -1197  
     347           rtu3490         2      5135     -5136  
     348           rtu3500         1      4643  
     349           rtu3510         2      4653     -4660  
     350           rtu3520         2      2141     -2145  
     351           rtu3530         1      1688  
     352           rtu3540         2      1402     -1408  
     353           rtu3550         2       590      -598  
     354           rtu3560         2       620      -621  
     355           rtu3570         2       524      -528  
     356           rtu3580         2      4801     -4804  
     357           rtu3590         2       176      -180  
     358           rtu3600         2      4110     -4115  
     359           rtu3610         2      3524     -3534  
     360           rtu3620         2      1005     -1015  
     361           rtu3630         2       651      -655  
     362           rtu3640         2      4558     -4562  
     363           rtu3650         2      4092     -4093  
     364           rtu3660         2      3126     -3139  
     365           rtu3670         2      2946     -2954  
     366           rtu3680         1      2121  
     367           rtu3690         1      1596  
     368           rtu3700         2      1427     -1435  
     369           rtu3710         2      4580     -4582  
     370           rtu3720         2      3284     -3288  
     371           rtu3730         2       378      -380  
     372           rtu3740         2       452      -456  
     373           rtu3750         1       353  
     374           rtu3760         2      2166     -2168  
     375           rtu3770         2      1328     -1334  
     376           rtu3780         2       657      -663  
     377           rtu3790         2       647      -650  
     378           rtu3800         2       624      -626  
     379           rtu3810         2      4976     -4979  
     380           rtu3820         1      3846  
     381           rtu3830         1      1335  
     382           rtu3840         1      3392  
     383           rtu3850         2      2764     -2767  
     384           rtu3870         2        30       -32  
     385           rtu3880         1      4535  
     386           rtu3890         2      3162     -3165  
     387           rtu3900         2      1677     -1682  
     388           rtu3910         2      1424     -1426  
     389           rtu3920         2       869      -872  
     390           rtu3930         2       342      -346  
     391           rtu3940         2      4934     -4936  
     392           rtu3950         2      4553     -4557  
     393           rtu3960         2      4012     -4015  
     394           rtu3970         2      2830     -2836  
     395           rtu3980         2      2477     -2481  
     396           rtu3990         1      2085  
     397           rtu4000         2      2188     -2192  
     398           rtu4010         2      1588     -1595  
     399           rtu4020         1      1416  
     400           rtu4030         2       568      -570  
     401           rtu4040         2        35       -40  
     402           rtu4050         2      4193     -4197  
     403           rtu4060         2      2893     -2895  
     404           rtu4070         2      2242     -2245  
     405           rtu4080         2      1619     -1621  
     406           rtu4090         2      1266     -1273  
     407           rtu4100         2       899      -900  
     408           rtu4110         2      4408     -4412  
     409           rtu4120         2      3834     -3835  
     410           rtu4130         1      4034  
     411           rtu4140         2       824      -825  
     412           rtu4150         2       904      -906  
     413           rtu4160         2      3779     -3784  
     414           rtu4170         2       387      -390  
     415           rtu4180         2       605      -612  
     416           rtu4190         2       430      -437  
     417           rtu4200         2      4911     -4913  
     418           rtu4210         2      4702     -4711  
     419           rtu4220         2      4087     -4089  
     420           rtu4230         2      3434     -3435  
     421           rtu4240         2      1622     -1625  
     422           rtu4250         2       893      -898  
     423           rtu4260         2       400      -404  
     424           rtu4270         2      1921     -1928  
     425           rtu4280         2      4900     -4905  
     426           rtu4290         2      2114     -2120  
     427           rtu4300         2      1353     -1358  
     428           rtu4310         2      4992     -4995  
     429           rtu4320         2      4715     -4722  
     430           rtu4330         2       576      -577  
     431           rtu4340         1      5097  
     432           rtu4350         2      4983     -4985  
     433           rtu4360         2      4617     -4620  
     434           rtu4370         2      4515     -4518  
     435           rtu4380         2      2514     -2518  
     436           rtu4390         2      2259     -2266  
     437           rtu4400         2      1299     -1301  
     438           rtu4410         2      4923     -4926  
     439           rtu4420         2      3005     -3012  
     440           rtu4430         2       376      -377  
     441           rtu4440         2      2002     -2005  
     442           rtu4450         2      1655     -1659  
     443           rtu4460         2       563      -567  
     444           rtu4470         2       163      -167  
     445           rtu4480         2       148      -149  
     446           rtu4490         2      2874     -2887  
     447           rtu4500         2       573      -575  
     448           rtu4510         2      5007     -5008  
     449           rtu4520         2      4968     -4970  
     450           rtu4530         2      4835     -4836  
     451           rtu4540         1      3785  
     452           rtu4550         2      3375     -3376  
     453           rtu4560         2      3100     -3110  
     454           rtu4570         2       951      -958  
     455           rtu4580         2       701      -702  
     456           rtu4590         2        64       -67  
     457           rtu4600         2      3151     -3156  
     458           rtu4610         2      1389     -1391  
     459           rtu4620         2      1492     -1495  
     460           rtu4630         2      1341     -1346  
     461           rtu4640         2      3579     -3580  
     462           rtu4650         2      3788     -3789  
     463           rtu4660         2       398      -399  
     464           rtu4670         2        12       -14  
     465           rtu4680         2      5057     -5058  
     466           rtu4690         2      5003     -5006  
     467           rtu4700         2      3021     -3022  
     468           rtu4710         2      2011     -2017  
     469           rtu4720         2      1107     -1110  
     470           rtu4730         2       945      -950  
     471           rtu4740         2       774      -776  
     472           rtu4750         2       204      -205  
     473           rtu4760         2      3869     -3871  
     474           rtu4770         2      3057     -3063  
     475           rtu4780         2      3013     -3015  
     476           rtu4790         2      2343     -2354  
     477           rtu4810         2       765      -767  
     478           rtu4820         2       192      -193  
     479           rtu4830         2      4056     -4061  
     480           rtu4840         2      2494     -2501  
     481           rtu4850         2      2139     -2140  
     482           rtu4860         2      1457     -1459  
     483           rtu4870         2      4046     -4047  
     484           rtu4880         2      3549     -3553  
     485           rtu4890         2      1392     -1393  
     486           rtu4900         2       705      -706  
     487           rtu4910         2      5148     -5150  
     488           rtu4920         2      4914     -4916  
     489           rtu4930         2      4099     -4103  
     490           rtu4940         2      3648     -3656  
     491           rtu4950         2      2928     -2930  
     492           rtu4960         2      1436     -1440  
     493           rtu4970         2       182      -187  
     494           rtu4980         2      3308     -3309  
     495           rtu4990         2      2604     -2607  
     496           rtu5000         2      1441     -1442  
     497           rtu5010         2      3554     -3565  
     498           rtu5020         2      2296     -2297  
     499           rtu5030         2       168      -175  
     500           rtu5040         2      5031     -5032  
     501           rtu5050         2      5152     -5153  
     502           rtu5060         2      5146     -5147  
     503           rtu5070         2      5138     -5139  
     504           rtu5080         2      5121     -5131  
     505           rtu5090         1      5137  
     506           rtu5100         1      5132  
     507           rtu5110         1      5120  
     508           rtu5120         2      5116     -5119  
     509           rtu5130         1      5109  
     510           rtu5140         1      5098  
     511           rtu5150         2      5085     -5089  
     512           rtu5160         2      5090     -5096  
     513           rtu5170         2      5079     -5083  
     514           rtu5180         1      5084  
     515           rtu5190         2      4964     -4966  
     516           rtu5200         2      5065     -5066  