rout_unit.ele: written by SWAT+ editor v2.3.3 on 2024-08-26 08:40 
      id  name                   obj_typ    obj_id          frac               dlr  
       1  hru0001                    hru         1     9.9675E-1                 0  
       2  hru0002                    hru         2     3.2468E-3                 0  
       3  hru0003                    hru         3     9.6059E-1                 0  
       4  hru0004                    hru         4     3.9409E-2                 0  
       5  hru0005                    hru         5     6.8090E-1                 0  
       6  hru0006                    hru         6     2.2111E-1                 0  
       7  hru0007                    hru         7     7.2864E-2                 0  
       8  hru0008                    hru         8     2.0101E-2                 0  
       9  hru0009                    hru         9     2.5126E-3                 0  
      10  hru0010                    hru        10     2.5126E-3                 0  
      11  hru0011                    hru        11     1.0000E+0                 0  
      12  hru0012                    hru        12     8.8101E-1                 0  
      13  hru0013                    hru        13     1.0755E-1                 0  
      14  hru0014                    hru        14     1.1442E-2                 0  
      15  hru0015                    hru        15     9.6943E-1                 0  
      16  hru0016                    hru        16     3.0568E-2                 0  
      17  hru0017                    hru        17     8.8925E-1                 0  
      18  hru0018                    hru        18     1.9544E-2                 0  
      19  hru0019                    hru        19     7.8176E-2                 0  
      20  hru0020                    hru        20     1.3029E-2                 0  
      21  hru0021                    hru        21     9.9666E-1                 0  
      22  hru0022                    hru        22     3.3445E-3                 0  
      23  hru0023                    hru        23     5.4780E-1                 0  
      24  hru0024                    hru        24     1.4470E-1                 0  
      25  hru0025                    hru        25     1.5827E-1                 0  
      26  hru0026                    hru        26     1.4858E-1                 0  
      27  hru0027                    hru        27     6.4599E-4                 0  
      28  hru0028                    hru        28     8.0335E-1                 0  
      29  hru0029                    hru        29     1.9665E-1                 0  
      30  hru0030                    hru        30     9.7279E-1                 0  
      31  hru0031                    hru        31     2.4943E-2                 0  
      32  hru0032                    hru        32     2.2676E-3                 0  
      33  hru0033                    hru        33     9.7333E-1                 0  
      34  hru0034                    hru        34     2.6667E-2                 0  
      35  hru0035                    hru        35     8.3333E-3                 0  
      36  hru0036                    hru        36     4.7083E-1                 0  
      37  hru0037                    hru        37     2.8333E-1                 0  
      38  hru0038                    hru        38     1.6250E-1                 0  
      39  hru0039                    hru        39     5.8333E-2                 0  
      40  hru0040                    hru        40     1.6667E-2                 0  
      41  hru0041                    hru        41     5.2419E-1                 0  
      42  hru0042                    hru        42     4.7581E-1                 0  
      43  hru0043                    hru        43     4.2969E-2                 0  
      44  hru0044                    hru        44     6.5430E-1                 0  
      45  hru0045                    hru        45     1.5625E-1                 0  
      46  hru0046                    hru        46     1.4453E-1                 0  
      47  hru0047                    hru        47     1.9531E-3                 0  
      48  hru0048                    hru        48     4.3478E-2                 0  
      49  hru0049                    hru        49     9.5217E-1                 0  
      50  hru0050                    hru        50     4.3478E-3                 0  
      51  hru0051                    hru        51     5.2747E-1                 0  
      52  hru0052                    hru        52     4.7253E-1                 0  
      53  hru0053                    hru        53     1.9704E-2                 0  
      54  hru0054                    hru        54     7.3399E-1                 0  
      55  hru0055                    hru        55     2.3399E-1                 0  
      56  hru0056                    hru        56     2.4631E-3                 0  
      57  hru0057                    hru        57     9.8522E-3                 0  
      58  hru0058                    hru        58     7.4074E-2                 0  
      59  hru0059                    hru        59     4.3210E-1                 0  
      60  hru0060                    hru        60     4.6914E-1                 0  
      61  hru0061                    hru        61     7.4074E-3                 0  
      62  hru0062                    hru        62     2.4691E-3                 0  
      63  hru0063                    hru        63     1.4815E-2                 0  
      64  hru0064                    hru        64     1.1418E-2                 0  
      65  hru0065                    hru        65     6.3749E-1                 0  
      66  hru0066                    hru        66     3.5014E-1                 0  
      67  hru0067                    hru        67     9.5147E-4                 0  
      68  hru0068                    hru        68     5.5491E-1                 0  
      69  hru0069                    hru        69     4.2775E-1                 0  
      70  hru0070                    hru        70     1.7341E-2                 0  
      71  hru0071                    hru        71     1.5267E-2                 0  
      72  hru0072                    hru        72     7.9008E-1                 0  
      73  hru0073                    hru        73     6.8702E-2                 0  
      74  hru0074                    hru        74     9.9237E-2                 0  
      75  hru0075                    hru        75     7.6336E-3                 0  
      76  hru0076                    hru        76     1.9084E-2                 0  
      77  hru0077                    hru        77     7.5000E-1                 0  
      78  hru0078                    hru        78     2.0833E-1                 0  
      79  hru0079                    hru        79     4.1667E-2                 0  
      80  hru0080                    hru        80     1.2360E-1                 0  
      81  hru0081                    hru        81     1.3109E-1                 0  
      82  hru0082                    hru        82     2.6592E-1                 0  
      83  hru0083                    hru        83     1.4981E-1                 0  
      84  hru0084                    hru        84     6.7416E-2                 0  
      85  hru0085                    hru        85     8.9888E-2                 0  
      86  hru0086                    hru        86     8.2397E-2                 0  
      87  hru0087                    hru        87     5.2434E-2                 0  
      88  hru0088                    hru        88     1.1236E-2                 0  
      89  hru0089                    hru        89     2.2472E-2                 0  
      90  hru0090                    hru        90     3.7453E-3                 0  
      91  hru0091                    hru        91     8.7594E-1                 0  
      92  hru0092                    hru        92     1.1278E-1                 0  
      93  hru0093                    hru        93     1.1278E-2                 0  
      94  hru0094                    hru        94     1.6026E-1                 0  
      95  hru0095                    hru        95     4.1026E-1                 0  
      96  hru0096                    hru        96     1.7949E-1                 0  
      97  hru0097                    hru        97     1.2179E-1                 0  
      98  hru0098                    hru        98     1.2821E-1                 0  
      99  hru0099                    hru        99     9.2063E-1                 0  
     100  hru0100                    hru       100     7.9365E-2                 0  
     101  hru0101                    hru       101     4.0237E-1                 0  
     102  hru0102                    hru       102     2.8994E-1                 0  
     103  hru0103                    hru       103     2.3077E-1                 0  
     104  hru0104                    hru       104     1.7751E-2                 0  
     105  hru0105                    hru       105     2.9586E-2                 0  
     106  hru0106                    hru       106     2.9586E-2                 0  
     107  hru0107                    hru       107     1.3189E-1                 0  
     108  hru0108                    hru       108     4.0748E-1                 0  
     109  hru0109                    hru       109     2.9134E-1                 0  
     110  hru0110                    hru       110     1.4173E-1                 0  
     111  hru0111                    hru       111     2.1654E-2                 0  
     112  hru0112                    hru       112     3.9370E-3                 0  
     113  hru0113                    hru       113     1.9685E-3                 0  
     114  hru0114                    hru       114     6.2500E-1                 0  
     115  hru0115                    hru       115     9.6154E-2                 0  
     116  hru0116                    hru       116     2.5000E-1                 0  
     117  hru0117                    hru       117     2.4038E-2                 0  
     118  hru0118                    hru       118     4.8077E-3                 0  
     119  hru0119                    hru       119     1.3043E-1                 0  
     120  hru0120                    hru       120     8.4058E-1                 0  
     121  hru0121                    hru       121     2.8986E-2                 0  
     122  hru0122                    hru       122     8.1265E-1                 0  
     123  hru0123                    hru       123     1.2412E-1                 0  
     124  hru0124                    hru       124     5.3864E-2                 0  
     125  hru0125                    hru       125     7.0258E-3                 0  
     126  hru0126                    hru       126     2.3419E-3                 0  
     127  hru0127                    hru       127     4.8128E-1                 0  
     128  hru0128                    hru       128     9.0909E-2                 0  
     129  hru0129                    hru       129     9.6257E-2                 0  
     130  hru0130                    hru       130     2.3529E-1                 0  
     131  hru0131                    hru       131     9.0909E-2                 0  
     132  hru0132                    hru       132     5.3476E-3                 0  
     133  hru0133                    hru       133     6.8362E-1                 0  
     134  hru0134                    hru       134     3.1638E-1                 0  
     135  hru0135                    hru       135     1.2179E-1                 0  
     136  hru0136                    hru       136     3.8462E-2                 0  
     137  hru0137                    hru       137     1.0256E-1                 0  
     138  hru0138                    hru       138     1.8590E-1                 0  
     139  hru0139                    hru       139     1.2179E-1                 0  
     140  hru0140                    hru       140     6.4103E-2                 0  
     141  hru0141                    hru       141     6.4103E-2                 0  
     142  hru0142                    hru       142     1.2179E-1                 0  
     143  hru0143                    hru       143     1.7308E-1                 0  
     144  hru0144                    hru       144     6.4103E-3                 0  
     145  hru0145                    hru       145     3.3426E-2                 0  
     146  hru0146                    hru       146     9.6379E-1                 0  
     147  hru0147                    hru       147     2.7855E-3                 0  
     148  hru0148                    hru       148     8.8095E-1                 0  
     149  hru0149                    hru       149     1.1905E-1                 0  
     150  hru0150                    hru       150     5.5116E-1                 0  
     151  hru0151                    hru       151     3.0693E-1                 0  
     152  hru0152                    hru       152     9.2409E-2                 0  
     153  hru0153                    hru       153     2.3102E-2                 0  
     154  hru0154                    hru       154     1.3201E-2                 0  
     155  hru0155                    hru       155     1.3201E-2                 0  
     156  hru0156                    hru       156     5.4682E-1                 0  
     157  hru0157                    hru       157     2.1405E-1                 0  
     158  hru0158                    hru       158     7.6923E-2                 0  
     159  hru0159                    hru       159     1.3378E-2                 0  
     160  hru0160                    hru       160     1.2542E-1                 0  
     161  hru0161                    hru       161     1.5050E-2                 0  
     162  hru0162                    hru       162     8.3612E-3                 0  
     163  hru0163                    hru       163     9.8765E-2                 0  
     164  hru0164                    hru       164     1.3580E-1                 0  
     165  hru0165                    hru       165     3.4568E-1                 0  
     166  hru0166                    hru       166     4.1667E-1                 0  
     167  hru0167                    hru       167     3.0864E-3                 0  
     168  hru0168                    hru       168     1.0828E-1                 0  
     169  hru0169                    hru       169     4.2038E-1                 0  
     170  hru0170                    hru       170     1.2739E-2                 0  
     171  hru0171                    hru       171     8.2803E-2                 0  
     172  hru0172                    hru       172     6.3694E-2                 0  
     173  hru0173                    hru       173     2.8025E-1                 0  
     174  hru0174                    hru       174     2.5478E-2                 0  
     175  hru0175                    hru       175     6.3694E-3                 0  
     176  hru0176                    hru       176     3.0778E-1                 0  
     177  hru0177                    hru       177     3.3533E-2                 0  
     178  hru0178                    hru       178     7.6647E-2                 0  
     179  hru0179                    hru       179     3.8323E-2                 0  
     180  hru0180                    hru       180     5.4371E-1                 0  
     181  hru0181                    hru       181     1.0000E+0                 0  
     182  hru0182                    hru       182     4.1379E-2                 0  
     183  hru0183                    hru       183     5.3103E-1                 0  
     184  hru0184                    hru       184     4.8276E-2                 0  
     185  hru0185                    hru       185     3.1034E-1                 0  
     186  hru0186                    hru       186     6.8966E-3                 0  
     187  hru0187                    hru       187     6.2069E-2                 0  
     188  hru0188                    hru       188     9.7279E-1                 0  
     189  hru0189                    hru       189     1.3605E-2                 0  
     190  hru0190                    hru       190     1.7007E-3                 0  
     191  hru0191                    hru       191     1.1905E-2                 0  
     192  hru0192                    hru       192     9.7761E-1                 0  
     193  hru0193                    hru       193     2.2388E-2                 0  
     194  hru0194                    hru       194     4.0816E-3                 0  
     195  hru0195                    hru       195     3.0408E-1                 0  
     196  hru0196                    hru       196     8.1633E-3                 0  
     197  hru0197                    hru       197     2.7347E-1                 0  
     198  hru0198                    hru       198     8.1633E-3                 0  
     199  hru0199                    hru       199     1.2653E-1                 0  
     200  hru0200                    hru       200     4.8980E-2                 0  
     201  hru0201                    hru       201     2.1020E-1                 0  
     202  hru0202                    hru       202     6.1224E-3                 0  
     203  hru0203                    hru       203     1.0204E-2                 0  
     204  hru0204                    hru       204     8.6222E-1                 0  
     205  hru0205                    hru       205     1.3778E-1                 0  
     206  hru0206                    hru       206     8.0871E-1                 0  
     207  hru0207                    hru       207     1.8939E-3                 0  
     208  hru0208                    hru       208     1.7235E-1                 0  
     209  hru0209                    hru       209     9.4697E-3                 0  
     210  hru0210                    hru       210     5.6818E-3                 0  
     211  hru0211                    hru       211     1.8939E-3                 0  
     212  hru0212                    hru       212     1.3497E-1                 0  
     213  hru0213                    hru       213     6.5235E-1                 0  
     214  hru0214                    hru       214     2.1268E-1                 0  
     215  hru0215                    hru       215     2.0286E-1                 0  
     216  hru0216                    hru       216     8.5714E-3                 0  
     217  hru0217                    hru       217     1.4286E-2                 0  
     218  hru0218                    hru       218     5.0571E-1                 0  
     219  hru0219                    hru       219     1.3143E-1                 0  
     220  hru0220                    hru       220     2.0000E-2                 0  
     221  hru0221                    hru       221     9.1429E-2                 0  
     222  hru0222                    hru       222     2.0000E-2                 0  
     223  hru0223                    hru       223     5.7143E-3                 0  
     224  hru0224                    hru       224     5.2105E-1                 0  
     225  hru0225                    hru       225     1.4211E-1                 0  
     226  hru0226                    hru       226     3.0000E-1                 0  
     227  hru0227                    hru       227     3.1579E-2                 0  
     228  hru0228                    hru       228     5.2632E-3                 0  
     229  hru0229                    hru       229     3.0479E-1                 0  
     230  hru0230                    hru       230     5.5479E-1                 0  
     231  hru0231                    hru       231     2.7397E-2                 0  
     232  hru0232                    hru       232     8.5616E-2                 0  
     233  hru0233                    hru       233     2.7397E-2                 0  
     234  hru0234                    hru       234     7.2752E-1                 0  
     235  hru0235                    hru       235     4.9046E-2                 0  
     236  hru0236                    hru       236     1.9619E-1                 0  
     237  hru0237                    hru       237     8.1744E-3                 0  
     238  hru0238                    hru       238     2.7248E-3                 0  
     239  hru0239                    hru       239     1.3624E-2                 0  
     240  hru0240                    hru       240     2.7248E-3                 0  
     241  hru0241                    hru       241     2.4943E-1                 0  
     242  hru0242                    hru       242     7.3469E-1                 0  
     243  hru0243                    hru       243     1.3605E-2                 0  
     244  hru0244                    hru       244     2.2676E-3                 0  
     245  hru0245                    hru       245     4.3966E-1                 0  
     246  hru0246                    hru       246     2.9741E-1                 0  
     247  hru0247                    hru       247     2.3060E-1                 0  
     248  hru0248                    hru       248     1.9397E-2                 0  
     249  hru0249                    hru       249     4.3103E-3                 0  
     250  hru0250                    hru       250     6.4655E-3                 0  
     251  hru0251                    hru       251     2.1552E-3                 0  
     252  hru0252                    hru       252     1.1364E-1                 0  
     253  hru0253                    hru       253     7.4773E-1                 0  
     254  hru0254                    hru       254     1.0227E-1                 0  
     255  hru0255                    hru       255     2.2727E-3                 0  
     256  hru0256                    hru       256     2.2727E-2                 0  
     257  hru0257                    hru       257     9.0909E-3                 0  
     258  hru0258                    hru       258     2.2727E-3                 0  
     259  hru0259                    hru       259     9.8288E-1                 0  
     260  hru0260                    hru       260     3.4247E-3                 0  
     261  hru0261                    hru       261     1.3699E-2                 0  
     262  hru0262                    hru       262     1.2727E-1                 0  
     263  hru0263                    hru       263     1.8182E-2                 0  
     264  hru0264                    hru       264     8.1818E-2                 0  
     265  hru0265                    hru       265     2.4242E-2                 0  
     266  hru0266                    hru       266     2.0000E-1                 0  
     267  hru0267                    hru       267     3.0000E-1                 0  
     268  hru0268                    hru       268     8.1818E-2                 0  
     269  hru0269                    hru       269     1.4848E-1                 0  
     270  hru0270                    hru       270     3.0303E-3                 0  
     271  hru0271                    hru       271     9.0909E-3                 0  
     272  hru0272                    hru       272     6.0606E-3                 0  
     273  hru0273                    hru       273     3.8889E-1                 0  
     274  hru0274                    hru       274     1.1481E-1                 0  
     275  hru0275                    hru       275     4.6296E-1                 0  
     276  hru0276                    hru       276     3.7037E-3                 0  
     277  hru0277                    hru       277     1.1111E-2                 0  
     278  hru0278                    hru       278     3.7037E-3                 0  
     279  hru0279                    hru       279     1.1111E-2                 0  
     280  hru0280                    hru       280     3.7037E-3                 0  
     281  hru0281                    hru       281     7.5365E-1                 0  
     282  hru0282                    hru       282     2.2445E-1                 0  
     283  hru0283                    hru       283     2.1898E-2                 0  
     284  hru0284                    hru       284     1.7964E-1                 0  
     285  hru0285                    hru       285     7.7844E-2                 0  
     286  hru0286                    hru       286     5.8683E-1                 0  
     287  hru0287                    hru       287     1.1377E-1                 0  
     288  hru0288                    hru       288     1.7964E-2                 0  
     289  hru0289                    hru       289     2.3952E-2                 0  
     290  hru0290                    hru       290     2.0266E-1                 0  
     291  hru0291                    hru       291     1.0299E-1                 0  
     292  hru0292                    hru       292     1.4618E-1                 0  
     293  hru0293                    hru       293     1.3621E-1                 0  
     294  hru0294                    hru       294     9.3023E-2                 0  
     295  hru0295                    hru       295     7.3090E-2                 0  
     296  hru0296                    hru       296     3.3223E-2                 0  
     297  hru0297                    hru       297     4.3189E-2                 0  
     298  hru0298                    hru       298     1.2957E-1                 0  
     299  hru0299                    hru       299     3.9867E-2                 0  
     300  hru0300                    hru       300     6.1064E-1                 0  
     301  hru0301                    hru       301     1.7021E-2                 0  
     302  hru0302                    hru       302     2.7660E-2                 0  
     303  hru0303                    hru       303     4.4681E-2                 0  
     304  hru0304                    hru       304     1.9149E-2                 0  
     305  hru0305                    hru       305     2.1277E-3                 0  
     306  hru0306                    hru       306     7.0213E-2                 0  
     307  hru0307                    hru       307     5.9574E-2                 0  
     308  hru0308                    hru       308     4.2553E-3                 0  
     309  hru0309                    hru       309     8.5106E-2                 0  
     310  hru0310                    hru       310     5.9574E-2                 0  
     311  hru0311                    hru       311     2.5683E-1                 0  
     312  hru0312                    hru       312     3.4973E-1                 0  
     313  hru0313                    hru       313     1.8033E-1                 0  
     314  hru0314                    hru       314     5.4645E-3                 0  
     315  hru0315                    hru       315     1.0929E-1                 0  
     316  hru0316                    hru       316     9.8361E-2                 0  
     317  hru0317                    hru       317     1.8313E-1                 0  
     318  hru0318                    hru       318     3.8072E-1                 0  
     319  hru0319                    hru       319     3.0361E-1                 0  
     320  hru0320                    hru       320     9.1566E-2                 0  
     321  hru0321                    hru       321     2.1687E-2                 0  
     322  hru0322                    hru       322     1.6867E-2                 0  
     323  hru0323                    hru       323     2.4096E-3                 0  
     324  hru0324                    hru       324     2.1352E-2                 0  
     325  hru0325                    hru       325     9.9644E-2                 0  
     326  hru0326                    hru       326     1.0320E-1                 0  
     327  hru0327                    hru       327     1.2456E-1                 0  
     328  hru0328                    hru       328     2.0285E-1                 0  
     329  hru0329                    hru       329     9.2527E-2                 0  
     330  hru0330                    hru       330     1.3523E-1                 0  
     331  hru0331                    hru       331     1.9573E-1                 0  
     332  hru0332                    hru       332     1.7794E-2                 0  
     333  hru0333                    hru       333     3.5587E-3                 0  
     334  hru0334                    hru       334     3.5587E-3                 0  
     335  hru0335                    hru       335     3.1282E-1                 0  
     336  hru0336                    hru       336     5.1282E-3                 0  
     337  hru0337                    hru       337     5.1282E-3                 0  
     338  hru0338                    hru       338     1.5385E-2                 0  
     339  hru0339                    hru       339     5.4872E-1                 0  
     340  hru0340                    hru       340     1.0769E-1                 0  
     341  hru0341                    hru       341     5.1282E-3                 0  
     342  hru0342                    hru       342     2.6337E-1                 0  
     343  hru0343                    hru       343     1.1523E-1                 0  
     344  hru0344                    hru       344     5.5967E-1                 0  
     345  hru0345                    hru       345     4.1152E-2                 0  
     346  hru0346                    hru       346     2.0576E-2                 0  
     347  hru0347                    hru       347     1.0000E+0                 0  
     348  hru0348                    hru       348     1.9759E-1                 0  
     349  hru0349                    hru       349     2.1687E-1                 0  
     350  hru0350                    hru       350     2.4096E-3                 0  
     351  hru0351                    hru       351     3.2771E-1                 0  