snow.sno: written by SWAT+ editor v2.3.3 on 2024-08-26 08:41 
name                  fall_tmp      melt_tmp      melt_max      melt_min       tmp_lag      snow_h2o         cov50     snow_init  
snow001                1.00000       0.50000       4.50000       4.50000       1.00000       1.00000       0.50000       0.00000  
