soils.sol: written by SWAT+ editor v2.3.3 on 2024-08-26 08:41 
name                            nly           hyd_grp        dp_tot    anion_excl      perc_crk  texture                              dp            bd           awc        soil_k        carbon          clay          silt          sand          rock           alb        usle_k            ec         caco3            ph  
Lf87-2-3b-776                     2                 D    1000.00000       0.50000       0.50000  SANDY_CLAY_LOAM            
                                                                                                                               300.00000       1.40000       0.17000       7.91000       0.50000      33.00000      17.00000      50.00000       0.00000       0.18000       0.24000       0.00000       0.00000       0.00000  
                                                                                                                              1000.00000       1.60000       0.17000       2.60000       0.40000      46.00000      17.00000      37.00000       0.00000       0.22000       0.24000       0.00000       0.00000       0.00000  
Fr6-2-3ac-579                     2                 C     970.00000       0.50000       0.50000  SANDY_CLAY_LOAM            
                                                                                                                               300.00000       1.20000       0.17000      18.48000       1.60000      34.00000      16.00000      50.00000       0.00000       0.02000       0.21000       0.00000       0.00000       0.00000  
                                                                                                                              1000.00000       1.20000       0.17000      16.07000       0.60000      43.00000      16.00000      41.00000       0.00000       0.15000       0.21000       0.00000       0.00000       0.00000  
Je7-3a-697                        2                 D    1000.00000       0.50000       0.50000  CLAY                       
                                                                                                                               300.00000       1.40000       0.17000       3.96000       1.90000      42.00000      39.00000      18.00000       0.00000       0.01000       0.26000       0.00000       0.00000       0.00000  
                                                                                                                              1000.00000       1.30000       0.17000       7.22000       0.60000      42.00000      38.00000      20.00000       0.00000       0.15000       0.26000       0.00000       0.00000       0.00000  
Qf40-1a-921                       2                 C    1000.00000       0.50000       0.50000  SANDY_LOAM                 
                                                                                                                               300.00000       1.40000       0.14000      38.90000       0.50000      12.00000      12.00000      76.00000       0.00000       0.18000       0.27000       0.00000       0.00000       0.00000  
                                                                                                                              1000.00000       1.50000       0.14000      23.83000       0.40000      14.00000      12.00000      75.00000       0.00000       0.22000       0.27000       0.00000       0.00000       0.00000  
Vp1-3a-283                        2                 C    1000.00000       0.50000       0.50000  CLAY                       
                                                                                                                               300.00000       1.10000       0.12000      18.40000       0.70000      57.00000      23.00000      20.00000       0.00000       0.12000       0.19000       0.00000       0.00000       0.00000  
                                                                                                                              1000.00000       1.20000       0.12000      10.63000       0.50000      61.00000      20.00000      19.00000       0.00000       0.18000       0.19000       0.00000       0.00000       0.00000  
Lf10-1a-733                       2                 C    1000.00000       0.50000       0.50000  SANDY_LOAM                 
                                                                                                                               300.00000       1.50000       0.14000      19.13000       0.60000      14.00000      15.00000      71.00000       0.00000       0.15000       0.25000       0.00000       0.00000       0.00000  
                                                                                                                              1000.00000       1.40000       0.14000      13.66000       0.30000      26.00000      14.00000      61.00000       0.00000       0.27000       0.25000       0.00000       0.00000       0.00000  
Lg2-1a-784                        2                 C    1000.00000       0.50000       0.50000  SANDY_LOAM                 
                                                                                                                               300.00000       1.40000       0.17000      39.36000       0.50000      15.00000       6.00000      78.00000       0.00000       0.18000       0.30000       0.00000       0.00000       0.00000  
                                                                                                                              1000.00000       1.60000       0.17000       6.28000       0.20000      30.00000       7.00000      64.00000       0.00000       0.33000       0.30000       0.00000       0.00000       0.00000  
Bc7-2-3b-450                      2                 C     810.00000       0.50000       0.50000  CLAY_LOAM                  
                                                                                                                               300.00000       1.10000       0.14000      20.79000       1.20000      32.00000      27.00000      41.00000       0.00000       0.04000       0.25000       0.00000       0.00000       0.00000  
                                                                                                                              1000.00000       1.20000       0.14000      13.48000       0.60000      37.00000      27.00000      36.00000       0.00000       0.15000       0.25000       0.00000       0.00000       0.00000  
Lc3-3a-703                        2                 C    1000.00000       0.50000       0.50000  CLAY                       
                                                                                                                               300.00000       1.30000       0.17000       8.75000       1.50000      47.00000      25.00000      28.00000       0.00000       0.02000       0.24000       0.00000       0.00000       0.00000  
                                                                                                                              1000.00000       1.60000       0.17000       2.24000       0.50000      61.00000      19.00000      20.00000       0.00000       0.18000       0.24000       0.00000       0.00000       0.00000  
Lf81-2a-767                       2                 C    1000.00000       0.50000       0.50000  SANDY_CLAY_LOAM            
                                                                                                                               300.00000       1.40000       0.17000      20.07000       0.40000      21.00000      10.00000      68.00000       0.00000       0.22000       0.24000       0.00000       0.00000       0.00000  
                                                                                                                              1000.00000       1.50000       0.17000       6.30000       0.30000      37.00000      11.00000      52.00000       0.00000       0.27000       0.24000       0.00000       0.00000       0.00000  
Lg3-1a-785                        2                 C    1000.00000       0.50000       0.50000  SANDY_LOAM                 
                                                                                                                               300.00000       1.30000       0.17000      40.86000       0.60000      15.00000      12.00000      73.00000       0.00000       0.15000       0.32000       0.00000       0.00000       0.00000  
                                                                                                                              1000.00000       1.40000       0.17000      17.40000       0.40000      24.00000      11.00000      66.00000       0.00000       0.22000       0.32000       0.00000       0.00000       0.00000  
WATER-1972                        1                 D      25.40000       0.50000       0.50000  WATER                      
                                                                                                                                25.00000       0.00000       0.00000      99.00000       0.00000       0.00000       0.00000       0.00000       0.00000       0.23000       0.00000       0.00000       0.00000       0.00000  
Lf82-1a-770                       2                 C    1000.00000       0.50000       0.50000  SANDY_LOAM                 
                                                                                                                               300.00000       1.40000       0.14000      20.56000       0.50000      16.00000      18.00000      66.00000       0.00000       0.18000       0.26000       0.00000       0.00000       0.00000  
                                                                                                                              1000.00000       1.40000       0.14000      10.70000       0.20000      27.00000      17.00000      56.00000       0.00000       0.33000       0.26000       0.00000       0.00000       0.00000  
I-Bc-V-642                        2                 C     690.00000       0.50000       0.50000  CLAY                       
                                                                                                                               300.00000       1.20000       0.10000      13.95000       1.10000      44.00000      31.00000      25.00000       0.00000       0.05000       0.23000       0.00000       0.00000       0.00000  
                                                                                                                              1000.00000       1.30000       0.10000       8.15000       0.60000      48.00000      30.00000      23.00000       0.00000       0.15000       0.23000       0.00000       0.00000       0.00000  
Ql15-1a-189                       2                 C    1000.00000       0.50000       0.50000  SANDY_LOAM                 
                                                                                                                               300.00000       1.40000       0.14000      47.40000       0.30000      10.00000      13.00000      78.00000       0.00000       0.27000       0.29000       0.00000       0.00000       0.00000  
                                                                                                                              1000.00000       1.50000       0.14000      27.82000       0.20000      12.00000      12.00000      76.00000       0.00000       0.33000       0.29000       0.00000       0.00000       0.00000  
Ne45-3a-841                       2                 D     910.00000       0.50000       0.50000  CLAY                       
                                                                                                                               300.00000       1.30000       0.14000       7.38000       1.10000      53.00000      29.00000      18.00000       0.00000       0.05000       0.23000       0.00000       0.00000       0.00000  
                                                                                                                              1000.00000       1.30000       0.14000       6.02000       0.50000      66.00000      21.00000      13.00000       0.00000       0.18000       0.23000       0.00000       0.00000       0.00000  
Lc50-1-2a-708                     2                 C     720.00000       0.50000       0.50000  SANDY_LOAM                 
                                                                                                                               300.00000       1.40000       0.12000      15.45000       0.60000      18.00000      21.00000      61.00000       0.00000       0.15000       0.24000       0.00000       0.00000       0.00000  
                                                                                                                              1000.00000       1.50000       0.12000       5.45000       0.30000      28.00000      20.00000      52.00000       0.00000       0.27000       0.24000       0.00000       0.00000       0.00000  
Lf10-1ac-734                      2                 C     960.00000       0.50000       0.50000  SANDY_LOAM                 
                                                                                                                               300.00000       1.50000       0.14000      19.13000       0.60000      14.00000      15.00000      71.00000       0.00000       0.15000       0.24000       0.00000       0.00000       0.00000  
                                                                                                                              1000.00000       1.40000       0.14000      13.66000       0.30000      26.00000      14.00000      61.00000       0.00000       0.27000       0.24000       0.00000       0.00000       0.00000  
Ne41-3a-835                       2                 C    1000.00000       0.50000       0.50000  CLAY                       
                                                                                                                               300.00000       1.30000       0.17000       9.10000       1.00000      46.00000      23.00000      31.00000       0.00000       0.07000       0.24000       0.00000       0.00000       0.00000  
                                                                                                                              1000.00000       1.20000       0.17000      10.07000       0.40000      65.00000      16.00000      20.00000       0.00000       0.22000       0.24000       0.00000       0.00000       0.00000  
Lc49-2a-705                       2                 C     910.00000       0.50000       0.50000  SANDY_LOAM                 
                                                                                                                               300.00000       1.40000       0.14000      18.54000       0.60000      18.00000      17.00000      65.00000       0.00000       0.15000       0.25000       0.00000       0.00000       0.00000  
                                                                                                                              1000.00000       1.60000       0.14000       4.46000       0.30000      26.00000      18.00000      57.00000       0.00000       0.27000       0.25000       0.00000       0.00000       0.00000  
Fr3-2ac-577                       2                 C     960.00000       0.50000       0.50000  SANDY_CLAY_LOAM            
                                                                                                                               300.00000       1.30000       0.17000      22.84000       1.00000      29.00000       8.00000      63.00000       0.00000       0.07000       0.19000       0.00000       0.00000       0.00000  
                                                                                                                              1000.00000       1.30000       0.17000       0.00000       0.30000      35.00000      10.00000      53.00000       0.00000       0.27000       0.19000       0.00000       0.00000       0.00000  
Qc45-1-3a-890                     2                 C    1000.00000       0.50000       0.50000  SANDY_CLAY_LOAM            
                                                                                                                               300.00000       1.40000       0.16000      16.22000       0.40000      22.00000      15.00000      64.00000       0.00000       0.22000       0.27000       0.00000       0.00000       0.00000  
                                                                                                                              1000.00000       1.50000       0.16000      18.72000       0.20000      16.00000      11.00000      72.00000       0.00000       0.33000       0.27000       0.00000       0.00000       0.00000  
Vp56-3ab-974                      2                 D    1000.00000       0.50000       0.50000  CLAY                       
                                                                                                                               300.00000       1.60000       0.14000       1.82000       0.60000      46.00000      28.00000      26.00000       0.00000       0.15000       0.22000       0.00000       0.00000       0.00000  
                                                                                                                              1000.00000       1.60000       0.14000       2.04000       0.40000      51.00000      25.00000      24.00000       0.00000       0.22000       0.22000       0.00000       0.00000       0.00000  
Lo42-1a-790                       2                 C    1000.00000       0.50000       0.50000  SANDY_LOAM                 
                                                                                                                               300.00000       1.20000       0.17000      54.39000       0.40000      15.00000      12.00000      73.00000       0.00000       0.22000       0.28000       0.00000       0.00000       0.00000  
                                                                                                                              1000.00000       1.60000       0.17000       6.83000       0.30000      23.00000      12.00000      65.00000       0.00000       0.27000       0.28000       0.00000       0.00000       0.00000  
Lc49-3a-706                       2                 D     910.00000       0.50000       0.50000  SANDY_CLAY_LOAM            
                                                                                                                               300.00000       1.40000       0.14000       6.87000       1.10000      32.00000      20.00000      48.00000       0.00000       0.05000       0.24000       0.00000       0.00000       0.00000  
                                                                                                                              1000.00000       1.60000       0.14000       2.76000       0.40000      41.00000      16.00000      43.00000       0.00000       0.22000       0.24000       0.00000       0.00000       0.00000  
Lf24-2a-742                       2                 C    1000.00000       0.50000       0.50000  SANDY_LOAM                 
                                                                                                                               300.00000       1.40000       0.16000      28.06000       0.30000      18.00000       9.00000      74.00000       0.00000       0.27000       0.26000       0.00000       0.00000       0.00000  
                                                                                                                              1000.00000       1.50000       0.16000       9.10000       0.20000      30.00000       9.00000      61.00000       0.00000       0.33000       0.26000       0.00000       0.00000       0.00000  
Ql17-1a-924                       2                 C     720.00000       0.50000       0.50000  SANDY_LOAM                 
                                                                                                                               300.00000       1.30000       0.09000      56.37000       0.40000      10.00000      13.00000      76.00000       0.00000       0.22000       0.27000       0.00000       0.00000       0.00000  
                                                                                                                              1000.00000       1.50000       0.09000      23.63000       0.20000      13.00000      12.00000      74.00000       0.00000       0.33000       0.27000       0.00000       0.00000       0.00000  
Vp54-3a-972                       2                 C     720.00000       0.50000       0.50000  CLAY                       
                                                                                                                               300.00000       1.10000       0.09000      22.97000       0.80000      47.00000      27.00000      26.00000       0.00000       0.10000       0.20000       0.00000       0.00000       0.00000  
                                                                                                                              1000.00000       1.30000       0.09000       8.02000       0.50000      53.00000      24.00000      23.00000       0.00000       0.18000       0.20000       0.00000       0.00000       0.00000  
Ql17-1-2a-923                     2                 C     720.00000       0.50000       0.50000  SANDY_LOAM                 
                                                                                                                               300.00000       1.30000       0.11000      49.58000       0.70000      12.00000      13.00000      75.00000       0.00000       0.12000       0.27000       0.00000       0.00000       0.00000  
                                                                                                                              1000.00000       1.50000       0.11000      16.24000       0.20000      17.00000      13.00000      70.00000       0.00000       0.33000       0.27000       0.00000       0.00000       0.00000  
Qc44-1a-889                       2                 C     910.00000       0.50000       0.50000  SANDY_LOAM                 
                                                                                                                               300.00000       1.40000       0.13000      37.15000       0.40000      13.00000      12.00000      76.00000       0.00000       0.22000       0.27000       0.00000       0.00000       0.00000  
                                                                                                                              1000.00000       1.50000       0.13000      17.08000       0.20000      17.00000      12.00000      71.00000       0.00000       0.33000       0.27000       0.00000       0.00000       0.00000  
Qc33-1a-880                       2                 C    1000.00000       0.50000       0.50000  LOAMY_SAND                 
                                                                                                                               300.00000       1.40000       0.14000      56.55000       0.30000      11.00000       8.00000      81.00000       0.00000       0.27000       0.27000       0.00000       0.00000       0.00000  
                                                                                                                              1000.00000       1.50000       0.14000      27.20000       0.20000      14.00000       9.00000      77.00000       0.00000       0.33000       0.27000       0.00000       0.00000       0.00000  
Re69-1a-935                       2                 C    1000.00000       0.50000       0.50000  LOAMY_SAND                 
                                                                                                                               300.00000       1.60000       0.12000      67.54000       0.30000       7.00000       7.00000      87.00000       0.00000       0.27000       0.28000       0.00000       0.00000       0.00000  
                                                                                                                              1000.00000       1.50000       0.12000      71.55000       0.20000       8.00000       7.00000      85.00000       0.00000       0.33000       0.28000       0.00000       0.00000       0.00000  
