sweep.ops: written by SWAT+ editor v2.3.3 on 2024-08-26 08:41 
name                   swp_eff     frac_curb  description
high_eff               0.80000       0.90000  
