time.sim: written by SWAT+ editor v2.3.3 on 2024-08-26 08:40 
day_start  yrc_start   day_end   yrc_end      step  
       0      1981         0      1981         0
