topography.hyd: written by SWAT+ editor v2.3.3 on 2024-08-26 08:41 
name                       slp       slp_len       lat_len      dist_cha         depos  
topohru0001            0.01601      90.00000      90.00000     121.00000       0.00000  
topohru0002            0.00000     121.00000     121.00000     121.00000       0.00000  
topohru0003            0.02055      90.00000      90.00000     121.00000       0.00000  
topohru0004            0.01847      90.00000      90.00000     121.00000       0.00000  
topohru0005            0.02278      90.00000      90.00000     121.00000       0.00000  
topohru0006            0.06903      30.00000      30.00000     121.00000       0.00000  
topohru0007            0.01491      90.00000      90.00000     121.00000       0.00000  
topohru0008            0.01538      90.00000      90.00000     121.00000       0.00000  
topohru0009            0.23174      10.00000      10.00000     121.00000       0.00000  
topohru0010            0.02058      90.00000      90.00000     121.00000       0.00000  
topohru0011            0.01378      90.00000      90.00000     121.00000       0.00000  
topohru0012            0.01794      90.00000      90.00000     121.00000       0.00000  
topohru0013            0.01740      90.00000      90.00000     121.00000       0.00000  
topohru0014            0.02053      90.00000      90.00000     121.00000       0.00000  
topohru0015            0.01195      90.00000      90.00000     121.00000       0.00000  
topohru0016            0.01060      90.00000      90.00000     121.00000       0.00000  
topohru0017            0.07372      30.00000      30.00000     121.00000       0.00000  
topohru0018            0.02050      90.00000      90.00000     121.00000       0.00000  
topohru0019            0.26823      10.00000      10.00000     121.00000       0.00000  
topohru0020            0.01337      90.00000      90.00000     121.00000       0.00000  
topohru0021            0.01623      90.00000      90.00000     121.00000       0.00000  
topohru0022            0.13941      10.00000      10.00000     121.00000       0.00000  
topohru0023            0.01201      90.00000      90.00000     121.00000       0.00000  
topohru0024            0.01146      90.00000      90.00000     121.00000       0.00000  
topohru0025            0.01176      90.00000      90.00000     121.00000       0.00000  
topohru0026            0.01192      90.00000      90.00000     121.00000       0.00000  
topohru0027            0.00000     121.00000     121.00000     121.00000       0.00000  
topohru0028            0.01682      90.00000      90.00000     121.00000       0.00000  
topohru0029            0.01808      90.00000      90.00000     121.00000       0.00000  
topohru0030            0.01328      90.00000      90.00000     121.00000       0.00000  
topohru0031            0.01374      90.00000      90.00000     121.00000       0.00000  
topohru0032            0.01186      90.00000      90.00000     121.00000       0.00000  
topohru0033            0.01244      90.00000      90.00000     121.00000       0.00000  
topohru0034            0.01593      90.00000      90.00000     121.00000       0.00000  
topohru0035            0.01093      90.00000      90.00000     121.00000       0.00000  
topohru0036            0.02848      90.00000      90.00000     121.00000       0.00000  
topohru0037            0.01552      90.00000      90.00000     121.00000       0.00000  
topohru0038            0.21673      10.00000      10.00000     121.00000       0.00000  
topohru0039            0.06173      30.00000      30.00000     121.00000       0.00000  
topohru0040            0.19954      10.00000      10.00000     121.00000       0.00000  
topohru0041            0.01101      90.00000      90.00000     121.00000       0.00000  
topohru0042            0.01241      90.00000      90.00000     121.00000       0.00000  
topohru0043            0.13635      10.00000      10.00000     121.00000       0.00000  
topohru0044            0.04040      60.00000      60.00000     121.00000       0.00000  
topohru0045            0.10845      10.00000      10.00000     121.00000       0.00000  
topohru0046            0.02708      90.00000      90.00000     121.00000       0.00000  
topohru0047            0.00991     121.00000     121.00000     121.00000       0.00000  
topohru0048            0.01335      90.00000      90.00000     121.00000       0.00000  
topohru0049            0.01264      90.00000      90.00000     121.00000       0.00000  
topohru0050            0.01260      90.00000      90.00000     121.00000       0.00000  
topohru0051            0.01256      90.00000      90.00000     121.00000       0.00000  
topohru0052            0.01233      90.00000      90.00000     121.00000       0.00000  
topohru0053            0.01619      90.00000      90.00000     121.00000       0.00000  
topohru0054            0.01656      90.00000      90.00000     121.00000       0.00000  
topohru0055            0.01410      90.00000      90.00000     121.00000       0.00000  
topohru0056            0.14591      10.00000      10.00000     121.00000       0.00000  
topohru0057            0.01751      90.00000      90.00000     121.00000       0.00000  
topohru0058            0.24033      10.00000      10.00000     121.00000       0.00000  
topohru0059            0.08067      10.00000      10.00000     121.00000       0.00000  
topohru0060            0.07821      30.00000      30.00000     121.00000       0.00000  
topohru0061            0.16534      10.00000      10.00000     121.00000       0.00000  
topohru0062            0.20929      10.00000      10.00000     121.00000       0.00000  
topohru0063            0.02872      90.00000      90.00000     121.00000       0.00000  
topohru0064            0.01603      90.00000      90.00000     121.00000       0.00000  
topohru0065            0.01259      90.00000      90.00000     121.00000       0.00000  
topohru0066            0.01266      90.00000      90.00000     121.00000       0.00000  
topohru0067            0.00970     121.00000     121.00000     121.00000       0.00000  
topohru0068            0.01321      90.00000      90.00000     121.00000       0.00000  
topohru0069            0.01392      90.00000      90.00000     121.00000       0.00000  
topohru0070            0.00241     121.00000     121.00000     121.00000       0.00000  
topohru0071            0.01520      90.00000      90.00000     121.00000       0.00000  
topohru0072            0.00661     121.00000     121.00000     121.00000       0.00000  
topohru0073            0.01061      90.00000      90.00000     121.00000       0.00000  
topohru0074            0.01118      90.00000      90.00000     121.00000       0.00000  
topohru0075            0.00054     121.00000     121.00000     121.00000       0.00000  
topohru0076            0.00331     121.00000     121.00000     121.00000       0.00000  
topohru0077            0.01409      90.00000      90.00000     121.00000       0.00000  
topohru0078            0.01062      90.00000      90.00000     121.00000       0.00000  
topohru0079            0.01601      90.00000      90.00000     121.00000       0.00000  
topohru0080            0.03081      60.00000      60.00000     121.00000       0.00000  
topohru0081            0.03261      60.00000      60.00000     121.00000       0.00000  
topohru0082            0.01833      90.00000      90.00000     121.00000       0.00000  
topohru0083            0.02124      90.00000      90.00000     121.00000       0.00000  
topohru0084            0.07140      30.00000      30.00000     121.00000       0.00000  
topohru0085            0.05651      30.00000      30.00000     121.00000       0.00000  
topohru0086            0.04802      60.00000      60.00000     121.00000       0.00000  
topohru0087            0.03345      60.00000      60.00000     121.00000       0.00000  
topohru0088            0.01977      90.00000      90.00000     121.00000       0.00000  
topohru0089            0.02140      90.00000      90.00000     121.00000       0.00000  
topohru0090            0.01768      90.00000      90.00000     121.00000       0.00000  
topohru0091            0.00670     121.00000     121.00000     121.00000       0.00000  
topohru0092            0.01124      90.00000      90.00000     121.00000       0.00000  
topohru0093            0.00254     121.00000     121.00000     121.00000       0.00000  
topohru0094            0.03203      60.00000      60.00000     121.00000       0.00000  
topohru0095            0.01900      90.00000      90.00000     121.00000       0.00000  
topohru0096            0.02181      90.00000      90.00000     121.00000       0.00000  
topohru0097            0.02043      90.00000      90.00000     121.00000       0.00000  
topohru0098            0.02241      90.00000      90.00000     121.00000       0.00000  
topohru0099            0.01101      90.00000      90.00000     121.00000       0.00000  
topohru0100            0.00376     121.00000     121.00000     121.00000       0.00000  
topohru0101            0.02324      90.00000      90.00000     121.00000       0.00000  
topohru0102            0.01878      90.00000      90.00000     121.00000       0.00000  
topohru0103            0.02085      90.00000      90.00000     121.00000       0.00000  
topohru0104            0.02362      90.00000      90.00000     121.00000       0.00000  
topohru0105            0.01814      90.00000      90.00000     121.00000       0.00000  
topohru0106            0.02703      90.00000      90.00000     121.00000       0.00000  
topohru0107            0.04074      60.00000      60.00000     121.00000       0.00000  
topohru0108            0.02458      90.00000      90.00000     121.00000       0.00000  
topohru0109            0.02226      90.00000      90.00000     121.00000       0.00000  
topohru0110            0.02052      90.00000      90.00000     121.00000       0.00000  
topohru0111            0.01649      90.00000      90.00000     121.00000       0.00000  
topohru0112            0.00100     121.00000     121.00000     121.00000       0.00000  
topohru0113            0.01941      90.00000      90.00000     121.00000       0.00000  
topohru0114            0.12166      10.00000      10.00000     121.00000       0.00000  
topohru0115            0.11774      10.00000      10.00000     121.00000       0.00000  
topohru0116            0.13022      10.00000      10.00000     121.00000       0.00000  
topohru0117            0.14414      10.00000      10.00000     121.00000       0.00000  
topohru0118            0.01448      90.00000      90.00000     121.00000       0.00000  
topohru0119            0.01227      90.00000      90.00000     121.00000       0.00000  
topohru0120            0.04389      60.00000      60.00000     121.00000       0.00000  
topohru0121            0.14143      10.00000      10.00000     121.00000       0.00000  
topohru0122            0.01697      90.00000      90.00000     121.00000       0.00000  
topohru0123            0.01719      90.00000      90.00000     121.00000       0.00000  
topohru0124            0.00788     121.00000     121.00000     121.00000       0.00000  
topohru0125            0.01723      90.00000      90.00000     121.00000       0.00000  
topohru0126            0.00539     121.00000     121.00000     121.00000       0.00000  
topohru0127            0.01880      90.00000      90.00000     121.00000       0.00000  
topohru0128            0.01672      90.00000      90.00000     121.00000       0.00000  
topohru0129            0.01774      90.00000      90.00000     121.00000       0.00000  
topohru0130            0.01775      90.00000      90.00000     121.00000       0.00000  
topohru0131            0.01755      90.00000      90.00000     121.00000       0.00000  
topohru0132            0.00100     121.00000     121.00000     121.00000       0.00000  
topohru0133            0.01145      90.00000      90.00000     121.00000       0.00000  
topohru0134            0.01016      90.00000      90.00000     121.00000       0.00000  
topohru0135            0.01870      90.00000      90.00000     121.00000       0.00000  
topohru0136            0.01955      90.00000      90.00000     121.00000       0.00000  
topohru0137            0.01772      90.00000      90.00000     121.00000       0.00000  
topohru0138            0.01436      90.00000      90.00000     121.00000       0.00000  
topohru0139            0.01943      90.00000      90.00000     121.00000       0.00000  
topohru0140            0.01727      90.00000      90.00000     121.00000       0.00000  
topohru0141            0.04158      60.00000      60.00000     121.00000       0.00000  
topohru0142            0.02605      90.00000      90.00000     121.00000       0.00000  
topohru0143            0.01830      90.00000      90.00000     121.00000       0.00000  
topohru0144            0.00100     121.00000     121.00000     121.00000       0.00000  
topohru0145            0.00595     121.00000     121.00000     121.00000       0.00000  
topohru0146            0.00691     121.00000     121.00000     121.00000       0.00000  
topohru0147            0.00152     121.00000     121.00000     121.00000       0.00000  
topohru0148            0.00558     121.00000     121.00000     121.00000       0.00000  
topohru0149            0.00363     121.00000     121.00000     121.00000       0.00000  
topohru0150            0.01784      90.00000      90.00000     121.00000       0.00000  
topohru0151            0.07375      30.00000      30.00000     121.00000       0.00000  
topohru0152            0.25546      10.00000      10.00000     121.00000       0.00000  
topohru0153            0.21180      10.00000      10.00000     121.00000       0.00000  
topohru0154            0.21908      10.00000      10.00000     121.00000       0.00000  
topohru0155            0.21231      10.00000      10.00000     121.00000       0.00000  
topohru0156            0.02797      90.00000      90.00000     121.00000       0.00000  
topohru0157            0.10099      10.00000      10.00000     121.00000       0.00000  
topohru0158            0.15039      10.00000      10.00000     121.00000       0.00000  
topohru0159            0.01287      90.00000      90.00000     121.00000       0.00000  
topohru0160            0.16868      10.00000      10.00000     121.00000       0.00000  
topohru0161            0.09538      10.00000      10.00000     121.00000       0.00000  
topohru0162            0.01191      90.00000      90.00000     121.00000       0.00000  
topohru0163            0.01760      90.00000      90.00000     121.00000       0.00000  
topohru0164            0.02262      90.00000      90.00000     121.00000       0.00000  
topohru0165            0.01759      90.00000      90.00000     121.00000       0.00000  
topohru0166            0.01869      90.00000      90.00000     121.00000       0.00000  
topohru0167            0.00000     121.00000     121.00000     121.00000       0.00000  
topohru0168            0.02586      90.00000      90.00000     121.00000       0.00000  
topohru0169            0.02517      90.00000      90.00000     121.00000       0.00000  
topohru0170            0.04680      60.00000      60.00000     121.00000       0.00000  
topohru0171            0.05118      30.00000      30.00000     121.00000       0.00000  
topohru0172            0.04155      60.00000      60.00000     121.00000       0.00000  
topohru0173            0.02980      90.00000      90.00000     121.00000       0.00000  
topohru0174            0.08459      10.00000      10.00000     121.00000       0.00000  
topohru0175            0.01509      90.00000      90.00000     121.00000       0.00000  
topohru0176            0.00554     121.00000     121.00000     121.00000       0.00000  
topohru0177            0.00286     121.00000     121.00000     121.00000       0.00000  
topohru0178            0.00127     121.00000     121.00000     121.00000       0.00000  
topohru0179            0.00098     121.00000     121.00000     121.00000       0.00000  
topohru0180            0.00100     121.00000     121.00000     121.00000       0.00000  
topohru0181            0.01793      90.00000      90.00000     121.00000       0.00000  
topohru0182            0.03023      60.00000      60.00000     121.00000       0.00000  
topohru0183            0.01455      90.00000      90.00000     121.00000       0.00000  
topohru0184            0.02003      90.00000      90.00000     121.00000       0.00000  
topohru0185            0.01262      90.00000      90.00000     121.00000       0.00000  
topohru0186            0.00100     121.00000     121.00000     121.00000       0.00000  
topohru0187            0.01733      90.00000      90.00000     121.00000       0.00000  
topohru0188            0.01736      90.00000      90.00000     121.00000       0.00000  
topohru0189            0.04062      60.00000      60.00000     121.00000       0.00000  
topohru0190            0.00970     121.00000     121.00000     121.00000       0.00000  
topohru0191            0.06901      30.00000      30.00000     121.00000       0.00000  
topohru0192            0.00662     121.00000     121.00000     121.00000       0.00000  
topohru0193            0.00656     121.00000     121.00000     121.00000       0.00000  
topohru0194            0.02016      90.00000      90.00000     121.00000       0.00000  
topohru0195            0.03260      60.00000      60.00000     121.00000       0.00000  
topohru0196            0.01030      90.00000      90.00000     121.00000       0.00000  
topohru0197            0.02826      90.00000      90.00000     121.00000       0.00000  
topohru0198            0.01995      90.00000      90.00000     121.00000       0.00000  
topohru0199            0.01280      90.00000      90.00000     121.00000       0.00000  
topohru0200            0.04981      60.00000      60.00000     121.00000       0.00000  
topohru0201            0.02533      90.00000      90.00000     121.00000       0.00000  
topohru0202            0.00067     121.00000     121.00000     121.00000       0.00000  
topohru0203            0.05039      30.00000      30.00000     121.00000       0.00000  
topohru0204            0.02597      90.00000      90.00000     121.00000       0.00000  
topohru0205            0.09717      10.00000      10.00000     121.00000       0.00000  
topohru0206            0.01230      90.00000      90.00000     121.00000       0.00000  
topohru0207            0.01953      90.00000      90.00000     121.00000       0.00000  
topohru0208            0.01344      90.00000      90.00000     121.00000       0.00000  
topohru0209            0.01364      90.00000      90.00000     121.00000       0.00000  
topohru0210            0.01142      90.00000      90.00000     121.00000       0.00000  
topohru0211            0.01402      90.00000      90.00000     121.00000       0.00000  
topohru0212            0.00537     121.00000     121.00000     121.00000       0.00000  
topohru0213            0.00756     121.00000     121.00000     121.00000       0.00000  
topohru0214            0.00202     121.00000     121.00000     121.00000       0.00000  
topohru0215            0.01597      90.00000      90.00000     121.00000       0.00000  
topohru0216            0.02467      90.00000      90.00000     121.00000       0.00000  
topohru0217            0.01877      90.00000      90.00000     121.00000       0.00000  
topohru0218            0.01475      90.00000      90.00000     121.00000       0.00000  
topohru0219            0.01364      90.00000      90.00000     121.00000       0.00000  
topohru0220            0.01368      90.00000      90.00000     121.00000       0.00000  
topohru0221            0.01409      90.00000      90.00000     121.00000       0.00000  
topohru0222            0.02049      90.00000      90.00000     121.00000       0.00000  
topohru0223            0.02524      90.00000      90.00000     121.00000       0.00000  
topohru0224            0.01772      90.00000      90.00000     121.00000       0.00000  
topohru0225            0.02097      90.00000      90.00000     121.00000       0.00000  
topohru0226            0.03074      60.00000      60.00000     121.00000       0.00000  
topohru0227            0.03738      60.00000      60.00000     121.00000       0.00000  
topohru0228            0.03821      60.00000      60.00000     121.00000       0.00000  
topohru0229            0.08865      10.00000      10.00000     121.00000       0.00000  
topohru0230            0.13612      10.00000      10.00000     121.00000       0.00000  
topohru0231            0.09548      10.00000      10.00000     121.00000       0.00000  
topohru0232            0.15078      10.00000      10.00000     121.00000       0.00000  
topohru0233            0.01632      90.00000      90.00000     121.00000       0.00000  
topohru0234            0.09845      10.00000      10.00000     121.00000       0.00000  
topohru0235            0.24119      10.00000      10.00000     121.00000       0.00000  
topohru0236            0.12343      10.00000      10.00000     121.00000       0.00000  
topohru0237            0.39776      10.00000      10.00000     121.00000       0.00000  
topohru0238            0.06792      30.00000      30.00000     121.00000       0.00000  
topohru0239            0.05812      30.00000      30.00000     121.00000       0.00000  
topohru0240            0.00076     121.00000     121.00000     121.00000       0.00000  
topohru0241            0.00637     121.00000     121.00000     121.00000       0.00000  
topohru0242            0.00763     121.00000     121.00000     121.00000       0.00000  
topohru0243            0.00486     121.00000     121.00000     121.00000       0.00000  
topohru0244            0.00000     121.00000     121.00000     121.00000       0.00000  
topohru0245            0.02500      90.00000      90.00000     121.00000       0.00000  
topohru0246            0.02351      90.00000      90.00000     121.00000       0.00000  
topohru0247            0.02407      90.00000      90.00000     121.00000       0.00000  
topohru0248            0.03210      60.00000      60.00000     121.00000       0.00000  
topohru0249            0.03270      60.00000      60.00000     121.00000       0.00000  
topohru0250            0.02747      90.00000      90.00000     121.00000       0.00000  
topohru0251            0.01953      90.00000      90.00000     121.00000       0.00000  
topohru0252            0.01043      90.00000      90.00000     121.00000       0.00000  
topohru0253            0.04255      60.00000      60.00000     121.00000       0.00000  
topohru0254            0.20932      10.00000      10.00000     121.00000       0.00000  
topohru0255            0.08843      10.00000      10.00000     121.00000       0.00000  
topohru0256            0.02181      90.00000      90.00000     121.00000       0.00000  
topohru0257            0.07393      30.00000      30.00000     121.00000       0.00000  
topohru0258            0.00000     121.00000     121.00000     121.00000       0.00000  
topohru0259            0.00900     121.00000     121.00000     121.00000       0.00000  
topohru0260            0.01186      90.00000      90.00000     121.00000       0.00000  
topohru0261            0.00019     121.00000     121.00000     121.00000       0.00000  
topohru0262            0.00953     121.00000     121.00000     121.00000       0.00000  
topohru0263            0.01076      90.00000      90.00000     121.00000       0.00000  
topohru0264            0.01467      90.00000      90.00000     121.00000       0.00000  
topohru0265            0.01729      90.00000      90.00000     121.00000       0.00000  
topohru0266            0.01542      90.00000      90.00000     121.00000       0.00000  
topohru0267            0.01530      90.00000      90.00000     121.00000       0.00000  
topohru0268            0.01686      90.00000      90.00000     121.00000       0.00000  
topohru0269            0.01742      90.00000      90.00000     121.00000       0.00000  
topohru0270            0.00100     121.00000     121.00000     121.00000       0.00000  
topohru0271            0.01740      90.00000      90.00000     121.00000       0.00000  
topohru0272            0.04175      60.00000      60.00000     121.00000       0.00000  
topohru0273            0.02212      90.00000      90.00000     121.00000       0.00000  
topohru0274            0.02245      90.00000      90.00000     121.00000       0.00000  
topohru0275            0.02094      90.00000      90.00000     121.00000       0.00000  
topohru0276            0.03342      60.00000      60.00000     121.00000       0.00000  
topohru0277            0.02492      90.00000      90.00000     121.00000       0.00000  
topohru0278            0.01509      90.00000      90.00000     121.00000       0.00000  
topohru0279            0.02485      90.00000      90.00000     121.00000       0.00000  
topohru0280            0.00100     121.00000     121.00000     121.00000       0.00000  
topohru0281            0.01124      90.00000      90.00000     121.00000       0.00000  
topohru0282            0.00758     121.00000     121.00000     121.00000       0.00000  
topohru0283            0.00458     121.00000     121.00000     121.00000       0.00000  
topohru0284            0.01317      90.00000      90.00000     121.00000       0.00000  
topohru0285            0.01901      90.00000      90.00000     121.00000       0.00000  
topohru0286            0.03292      60.00000      60.00000     121.00000       0.00000  
topohru0287            0.02458      90.00000      90.00000     121.00000       0.00000  
topohru0288            0.06579      30.00000      30.00000     121.00000       0.00000  
topohru0289            0.04169      60.00000      60.00000     121.00000       0.00000  
topohru0290            0.09447      10.00000      10.00000     121.00000       0.00000  
topohru0291            0.12509      10.00000      10.00000     121.00000       0.00000  
topohru0292            0.04341      60.00000      60.00000     121.00000       0.00000  
topohru0293            0.05919      30.00000      30.00000     121.00000       0.00000  
topohru0294            0.07082      30.00000      30.00000     121.00000       0.00000  
topohru0295            0.06002      30.00000      30.00000     121.00000       0.00000  
topohru0296            0.12592      10.00000      10.00000     121.00000       0.00000  
topohru0297            0.25979      10.00000      10.00000     121.00000       0.00000  
topohru0298            0.10699      10.00000      10.00000     121.00000       0.00000  
topohru0299            0.16962      10.00000      10.00000     121.00000       0.00000  
topohru0300            0.07270      30.00000      30.00000     121.00000       0.00000  
topohru0301            0.06866      30.00000      30.00000     121.00000       0.00000  
topohru0302            0.10546      10.00000      10.00000     121.00000       0.00000  
topohru0303            0.07714      30.00000      30.00000     121.00000       0.00000  
topohru0304            0.20552      10.00000      10.00000     121.00000       0.00000  
topohru0305            0.14866      10.00000      10.00000     121.00000       0.00000  
topohru0306            0.07096      30.00000      30.00000     121.00000       0.00000  
topohru0307            0.06603      30.00000      30.00000     121.00000       0.00000  
topohru0308            0.05582      30.00000      30.00000     121.00000       0.00000  
topohru0309            0.05657      30.00000      30.00000     121.00000       0.00000  
topohru0310            0.05411      30.00000      30.00000     121.00000       0.00000  
topohru0311            0.08800      10.00000      10.00000     121.00000       0.00000  
topohru0312            0.13498      10.00000      10.00000     121.00000       0.00000  
topohru0313            0.02060      90.00000      90.00000     121.00000       0.00000  
topohru0314            0.02156      90.00000      90.00000     121.00000       0.00000  
topohru0315            0.10473      10.00000      10.00000     121.00000       0.00000  
topohru0316            0.02329      90.00000      90.00000     121.00000       0.00000  
topohru0317            0.00262     121.00000     121.00000     121.00000       0.00000  
topohru0318            0.00352     121.00000     121.00000     121.00000       0.00000  
topohru0319            0.01245      90.00000      90.00000     121.00000       0.00000  
topohru0320            0.00205     121.00000     121.00000     121.00000       0.00000  
topohru0321            0.00228     121.00000     121.00000     121.00000       0.00000  
topohru0322            0.00261     121.00000     121.00000     121.00000       0.00000  
topohru0323            0.00152     121.00000     121.00000     121.00000       0.00000  
topohru0324            0.07627      30.00000      30.00000     121.00000       0.00000  
topohru0325            0.09522      10.00000      10.00000     121.00000       0.00000  
topohru0326            0.06986      30.00000      30.00000     121.00000       0.00000  
topohru0327            0.07894      30.00000      30.00000     121.00000       0.00000  
topohru0328            0.04144      60.00000      60.00000     121.00000       0.00000  
topohru0329            0.06074      30.00000      30.00000     121.00000       0.00000  
topohru0330            0.03847      60.00000      60.00000     121.00000       0.00000  
topohru0331            0.05084      30.00000      30.00000     121.00000       0.00000  
topohru0332            0.04164      60.00000      60.00000     121.00000       0.00000  
topohru0333            0.05067      30.00000      30.00000     121.00000       0.00000  
topohru0334            0.16467      10.00000      10.00000     121.00000       0.00000  
topohru0335            0.00098     121.00000     121.00000     121.00000       0.00000  