weather-wgn.cli: written by SWAT+ editor v2.3.3 on 2024-08-26 08:40 
173s291e                      -17.32870      29.06250     727.00000        32  
 tmp_max_ave   tmp_min_ave    tmp_max_sd    tmp_min_sd       pcp_ave        pcp_sd      pcp_skew       wet_dry       wet_wet      pcp_days       pcp_hhr       slr_ave       dew_ave       wnd_ave  
    32.68690      19.61130       4.94267       1.41564     212.64100      11.22870       3.45284       0.33016       0.45643      21.15620      35.03110      22.48030       0.67512       1.81749  
    31.71350      19.02990       4.72462       1.45300     178.60700      10.42660       3.11601       0.29518       0.43357      17.87500      29.61720      22.50470       0.70471       1.81757  
    31.53870      18.40150       4.45722       1.61692     148.81600       8.61765       4.49480       0.29684       0.43546      18.15620      40.38200      21.39160       0.69184       1.76109  
    31.41730      16.54270       3.98233       2.25182      46.64420       5.05254       7.39052       0.16124       0.35563       8.87500      23.72170      19.21950       0.59918       1.74903  
    29.49590      13.51050       3.66369       2.45591      10.05060       1.82014       9.43992       0.05980       0.28409       2.75000       9.05728      17.82230       0.53913       1.76944  
    27.13210      11.09560       2.95053       2.67040       3.25435       0.93334      15.85220       0.03587       0.15000       1.25000       7.48315      16.83060       0.51765       1.85552  
    27.22470      10.75800       3.13692       2.33937       1.93267       0.42849       9.02440       0.02294       0.24242       1.03125       2.03226      17.78260       0.47830       1.95533  
    31.17500      13.31490       3.21308       2.71421       0.46193       0.23730      21.03920       0.00609       0.14286       0.21875       2.14371      22.00980       0.36970       2.12551  
    36.30940      17.09790       3.38511       2.85227       0.84248       0.48236      27.83050       0.00738       0.27273       0.34375       5.03964      25.94330       0.28375       2.29882  
    37.99700      20.57680       3.71342       2.47261       6.73875       1.73509      18.88380       0.05092       0.26087       2.15625      15.67400      25.81820       0.30305       2.50449  
    37.43680      21.67740       4.24884       2.03141      35.63690       4.96692       8.09685       0.14870       0.35683       7.09375      21.25500      23.75160       0.38215       2.30363  
    34.11820      20.59010       5.19939       1.78404     147.11500       9.74907       4.02559       0.28280       0.43911      16.93750      29.34380      21.86590       0.57009       1.98571  
173s294e                      -17.32870      29.37500     846.00000        32  
 tmp_max_ave   tmp_min_ave    tmp_max_sd    tmp_min_sd       pcp_ave        pcp_sd      pcp_skew       wet_dry       wet_wet      pcp_days       pcp_hhr       slr_ave       dew_ave       wnd_ave  
    31.91220      18.93410       4.82352       1.40216     185.63000      10.17020       4.15597       0.29688       0.45833      21.00000      41.84920      22.31100       0.68311       1.91390  
    31.29890      18.32780       4.55347       1.51988     152.77400       8.72949       3.13893       0.31962       0.44048      18.37500      25.64880      22.50430       0.71020       1.89529  
    31.26730      17.76030       4.20897       1.61113     121.51400       8.15931       6.97200       0.27529       0.44444      17.71880      48.58790      21.56920       0.69331       1.85767  
    30.83780      15.95360       3.70360       2.20245      37.04130       4.54541       9.75317       0.15352       0.35361       8.21875      27.89340      19.30220       0.60133       1.86591  
    28.97840      12.91960       3.54638       2.50461       8.34178       1.63344      10.08530       0.05344       0.24324       2.31250       9.21530      17.85130       0.54205       1.86847  
    26.69590      10.50830       2.94542       2.65721       2.41925       0.71548      13.48570       0.02581       0.16667       0.93750       4.77768      17.01200       0.52207       1.98531  
    26.76330      10.28480       3.12242       2.36683       1.64763       0.36748       9.06817       0.01975       0.26667       0.93750       1.76880      18.10290       0.48191       2.11598  
    30.57010      13.06310       3.30560       2.90066       0.29365       0.12707      16.25670       0.00508       0.28571       0.21875       0.96731      22.17430       0.37383       2.38888  
    35.44360      17.02390       3.44699       3.02573       0.72677       0.40653      26.31560       0.00947       0.10000       0.31250       4.15043      25.87370       0.28898       2.67262  
    36.80390      20.13110       3.64592       2.55310       6.45777       1.86802      20.48940       0.04278       0.26316       1.78125      17.49570      25.44610       0.31380       2.90543  
    36.36040      20.98970       4.13261       2.10466      31.08810       4.79023       8.82891       0.12025       0.31765       5.31250      24.64300      22.86680       0.39446       2.56347  
    33.30750      19.84670       5.09508       1.74882     136.51100       9.43141       4.41550       0.27409       0.42747      16.15620      34.67240      21.27860       0.58210       2.12219  
173s297e                      -17.32870      29.68750    1021.00000        32  
 tmp_max_ave   tmp_min_ave    tmp_max_sd    tmp_min_sd       pcp_ave        pcp_sd      pcp_skew       wet_dry       wet_wet      pcp_days       pcp_hhr       slr_ave       dew_ave       wnd_ave  
    31.11900      18.24570       4.81918       1.41609     163.06500       9.40277       4.19683       0.30303       0.46375      20.68750      32.40610      22.31070       0.69168       2.06105  
    30.63200      17.55550       4.56970       1.57767     133.76000       7.98761       3.84012       0.33533       0.42807      17.81250      26.92370      22.53670       0.71854       2.00018  
    30.68490      17.04980       4.19126       1.66857      95.67930       6.44616       6.23696       0.27641       0.43327      17.09380      32.45960      21.86140       0.69821       1.98831  
    30.26370      15.30490       3.50704       2.15136      26.86510       3.85859      12.60170       0.13742       0.36444       7.03125      28.40830      19.68880       0.60639       2.00305  
    28.43140      12.39520       3.49105       2.49725       7.09522       1.44324      11.72460       0.04752       0.24615       2.03125      10.07690      18.10270       0.54917       1.98509  
    26.05290       9.98506       2.96995       2.54393       2.02764       0.56379      15.41710       0.02703       0.20000       1.09375       4.36011      17.23440       0.52945       2.14104  
    26.11050       9.87343       3.15081       2.35521       1.38890       0.29718       8.44844       0.02604       0.21875       1.00000       1.34733      18.37810       0.48962       2.29827  
    29.73730      12.60150       3.26705       2.85688       0.28845       0.12076      18.28950       0.00712       0.11111       0.28125       1.03100      22.39730       0.38648       2.67205  
    34.18350      16.53160       3.40645       3.01299       1.13262       0.46939      18.76080       0.00738       0.33333       0.37500       4.05670      26.06460       0.30256       3.09961  
    35.35980      19.27680       3.52453       2.61318       7.34687       2.19437      18.72470       0.03842       0.29091       1.71875      19.29100      25.75010       0.33208       3.34288  
    35.12650      20.07550       3.97306       2.14531      27.97620       4.63219       9.23292       0.09448       0.33103       4.53125      25.02270      23.07580       0.41168       2.87931  
    32.33940      19.05180       5.00044       1.70554     124.82500       8.90627       4.45743       0.25964       0.41141      15.34380      35.36160      21.45930       0.59534       2.30999  
173s300e                      -17.32870      30.00000    1175.00000        32  
 tmp_max_ave   tmp_min_ave    tmp_max_sd    tmp_min_sd       pcp_ave        pcp_sd      pcp_skew       wet_dry       wet_wet      pcp_days       pcp_hhr       slr_ave       dew_ave       wnd_ave  
    30.31830      17.50930       4.80238       1.42908     150.38900       8.83058       3.95560       0.32749       0.46000      20.31250      25.68000      22.07810       0.70532       2.15457  
    29.93960      16.78880       4.59365       1.61125     121.68900       7.81838       4.46509       0.30508       0.43273      17.18750      27.35030      22.22690       0.73102       2.06212  
    29.99530      16.32770       4.24089       1.68826      76.67930       5.09139       6.28970       0.25309       0.42688      15.81250      28.26710      21.81650       0.70794       2.07586  
    29.70450      14.58060       3.46504       2.08778      20.32950       3.17631      16.12520       0.13158       0.35500       6.25000      26.87810      20.06440       0.61759       2.09163  
    27.85640      11.87570       3.45564       2.39109       5.63967       1.27760      17.41760       0.04320       0.29231       2.03125      11.25330      18.38190       0.55782       2.07397  
    25.34780       9.47181       3.00244       2.45369       1.41393       0.34613      11.75550       0.02583       0.22581       0.96875       2.37923      17.45960       0.54038       2.25630  
    25.32860       9.28819       3.15780       2.27402       1.32879       0.30263      10.25530       0.02081       0.25806       0.96875       1.79103      18.62630       0.50430       2.42992  
    28.78140      11.85490       3.20582       2.77384       0.37771       0.17433      17.62260       0.00609       0.14286       0.21875       1.39509      22.61460       0.40689       2.84536  
    32.95680      15.66710       3.37471       2.94627       1.53286       0.63884      15.34820       0.00844       0.25000       0.37500       4.13240      26.29720       0.32268       3.36449  
    34.18260      18.22210       3.43544       2.59724       7.66042       2.34554      17.44990       0.03598       0.21277       1.46875      18.25520      26.24430       0.35455       3.58551  
    33.99510      19.11430       3.83520       2.11736      26.79960       4.63228      10.63470       0.09701       0.32692       4.87500      25.98820      23.68290       0.43108       3.07145  
    31.34360      18.25370       4.90449       1.64693     119.68500       8.54154       4.58690       0.26423       0.42073      15.37500      33.51470      21.71850       0.61150       2.42527  
173s303e                      -17.32870      30.31250    1130.00000        32  
 tmp_max_ave   tmp_min_ave    tmp_max_sd    tmp_min_sd       pcp_ave        pcp_sd      pcp_skew       wet_dry       wet_wet      pcp_days       pcp_hhr       slr_ave       dew_ave       wnd_ave  
    28.97200      16.67580       4.62487       1.41219     168.44000       9.40803       4.05058       0.32166       0.45280      21.18750      34.86890      21.10110       0.73303       2.16697  
    28.66950      16.09690       4.48137       1.54254     133.96600       7.98582       3.78106       0.32298       0.45017      18.18750      29.16590      21.10280       0.75508       2.07555  
    28.71660      15.62690       4.04750       1.62905      80.60220       5.23490       5.48758       0.29501       0.42185      16.59380      22.98600      20.95840       0.73027       2.12143  
    28.47260      13.79380       3.42007       2.02792      22.09230       3.09030      15.05640       0.13580       0.36796       7.21875      25.53310      19.89730       0.64148       2.14994  
    26.69170      11.13580       3.42509       2.28140       5.64012       1.18976      15.92970       0.05142       0.28571       2.40625      10.07330      18.38100       0.57820       2.14231  
    24.26020       8.74529       2.96719       2.31478       1.65648       0.35073       9.36927       0.03254       0.21053       1.18750       1.84811      17.54090       0.56184       2.34704  
    24.17980       8.47688       3.10109       2.16962       1.50110       0.29813       8.79128       0.02935       0.21053       1.18750       1.59396      18.71570       0.53018       2.53971  
    27.43210      10.82210       3.17223       2.60936       0.50050       0.21068      16.43960       0.00814       0.11111       0.28125       1.63782      22.66000       0.43597       2.94358  
    31.39260      14.47080       3.26291       2.82997       1.73686       0.71773      15.04200       0.00738       0.25000       0.37500       4.28051      26.33030       0.34978       3.48591  
    32.66470      16.93670       3.31700       2.50772      10.25580       2.56791      14.34030       0.04654       0.25000       2.12500      18.11220      26.14990       0.38377       3.66143  
    32.53830      17.94340       3.64583       2.04260      30.34210       4.92775      13.06250       0.13966       0.32836       6.28125      34.30650      23.48410       0.46020       3.12319  
    29.94730      17.26580       4.62957       1.57911     139.41500       9.12348       4.40904       0.28538       0.44304      17.28120      37.70920      21.27170       0.64192       2.43828  
173s306e                      -17.32870      30.62500    1346.00000        32  
 tmp_max_ave   tmp_min_ave    tmp_max_sd    tmp_min_sd       pcp_ave        pcp_sd      pcp_skew       wet_dry       wet_wet      pcp_days       pcp_hhr       slr_ave       dew_ave       wnd_ave  
    27.70190      15.95670       4.37617       1.38306     186.30500       9.49897       4.26928       0.34733       0.46164      22.81250      37.82610      20.06110       0.76138       2.14505  
    27.46780      15.48310       4.39851       1.56347     145.43400       7.65330       3.03751       0.39464       0.44323      20.09380      23.88180      19.89000       0.78166       2.07177  
    27.38250      14.91400       3.82406       1.65785      93.90130       5.86841       5.64690       0.32195       0.44158      18.18750      28.06050      20.05250       0.75954       2.14740  
    27.05710      12.91560       3.28691       2.04019      29.34940       3.44818      12.26370       0.16691       0.34629       8.84375      25.67910      19.48730       0.67410       2.17927  
    25.42430      10.10200       3.37154       2.22391       7.82234       1.25891       9.14934       0.06404       0.29703       3.15625       7.54924      18.17790       0.61075       2.15358  
    23.12170       7.80247       2.91097       2.21760       2.19609       0.38432       6.86448       0.04176       0.24000       1.56250       1.46599      17.50790       0.59265       2.37164  
    23.01620       7.51572       3.06389       2.10027       1.78219       0.30595       7.20219       0.03496       0.25000       1.50000       1.40050      18.66510       0.56199       2.59740  
    26.08150       9.64457       3.19640       2.45129       0.90063       0.31273      17.17910       0.01127       0.31250       0.50000       2.64479      22.53560       0.46960       2.97169  
    29.95420      13.13860       3.16202       2.70778       1.81787       0.73167      17.56940       0.01060       0.29412       0.53125       5.87657      26.25200       0.38101       3.51327  
    31.24020      15.64830       3.21402       2.41035      13.46020       2.68439      11.00180       0.05876       0.30000       2.81250      15.66560      25.72570       0.41633       3.67120  
    31.15670      16.77800       3.51881       1.95665      41.26850       5.21748      11.51560       0.15843       0.37868       8.50000      37.01980      22.81370       0.49458       3.12180  
    28.58980      16.38030       4.33981       1.51607     165.22300       9.57495       3.77239       0.31183       0.45098      19.12500      33.66090      20.46850       0.67646       2.40864  
173s309e                      -17.32870      30.93750    1174.00000        32  
 tmp_max_ave   tmp_min_ave    tmp_max_sd    tmp_min_sd       pcp_ave        pcp_sd      pcp_skew       wet_dry       wet_wet      pcp_days       pcp_hhr       slr_ave       dew_ave       wnd_ave  
    27.48910      15.66670       4.11975       1.45816     182.60000       9.41769       4.28735       0.37359       0.46080      22.71880      36.49290      20.21020       0.76671       2.11322  
    27.22280      15.19620       4.25463       1.74368     144.38900       7.91129       3.78819       0.39695       0.45950      20.06250      26.66590      19.80300       0.78784       2.04575  
    27.03540      14.48140       3.64854       1.86712      95.00790       6.11579       6.03824       0.30118       0.43563      17.71880      31.69780      20.03090       0.76882       2.13089  
    26.50800      12.22860       3.10522       2.25783      28.57650       3.55911      12.25460       0.16326       0.36131       8.56250      26.03990      19.47170       0.69012       2.16176  
    24.95470       9.24963       3.30860       2.37148       8.46207       1.23019       7.18920       0.06009       0.34862       3.40625       5.24391      18.13940       0.63120       2.11008  
    22.73900       6.93189       2.86766       2.36245       1.87191       0.34555       8.95490       0.04053       0.17021       1.46875       2.03977      17.53010       0.61744       2.31043  
    22.56900       6.63708       2.99975       2.20327       1.29052       0.26905       8.70137       0.02604       0.18750       1.00000       1.45097      18.64450       0.59067       2.55167  
    25.42500       8.54821       3.18102       2.47150       1.05625       0.29955      12.07340       0.01132       0.35000       0.62500       1.99050      22.43370       0.50113       2.88979  
    29.25370      12.03790       3.07924       2.69495       1.92390       0.79982      19.21770       0.01166       0.23529       0.53125       7.01331      26.21020       0.40765       3.43048  
    30.61470      14.80080       3.10159       2.38008      13.89780       2.40683       8.90789       0.06111       0.31522       2.87500      12.15090      25.67350       0.43881       3.63183  
    30.63900      16.15430       3.28473       1.94962      42.68090       4.93334       8.68872       0.15552       0.37868       8.50000      29.90800      22.91860       0.51067       3.11599  
    28.28340      16.00580       4.12531       1.56467     166.68600       9.99828       3.79912       0.31565       0.44646      18.96880      29.55770      20.49860       0.68630       2.37877  
173s312e                      -17.32870      31.25000    1332.00000        32  
 tmp_max_ave   tmp_min_ave    tmp_max_sd    tmp_min_sd       pcp_ave        pcp_sd      pcp_skew       wet_dry       wet_wet      pcp_days       pcp_hhr       slr_ave       dew_ave       wnd_ave  
    28.56240      15.85470       4.04944       1.58830     152.19900       9.20832       4.93999       0.34012       0.44290      20.25000      35.17830      21.42900       0.74431       2.02838  
    28.21670      15.39080       4.27284       1.82768     125.62900       8.18950       4.79167       0.30499       0.44050      17.59380      35.88910      20.83340       0.76726       1.95964  
    28.01650      14.51600       3.57974       2.00168      72.69300       5.62233       6.78208       0.25341       0.42380      14.96880      27.30340      20.92330       0.74949       2.02499  
    27.25650      12.07740       3.01404       2.47464      17.74490       3.29270      16.86800       0.11514       0.33690       5.84375      26.92100      20.08070       0.67870       2.07635  
    25.57690       9.09078       3.24434       2.47917       5.81583       0.91646       7.96137       0.05629       0.28235       2.65625       4.58662      18.47080       0.63035       2.03844  
    23.27990       6.85006       2.86913       2.46425       1.08707       0.23059       9.05856       0.03236       0.06061       1.03125       1.20884      17.69690       0.62261       2.20695  
    23.02650       6.55307       2.94643       2.26857       0.94180       0.26019      11.45180       0.02058       0.00000       0.62500       1.39810      18.66580       0.59907       2.42578  
    25.72690       8.19584       3.10874       2.51246       0.62748       0.21100      17.05640       0.01333       0.17647       0.53125       1.74477      22.40920       0.51634       2.71040  
    29.53180      11.56120       3.06500       2.71174       1.67469       0.66414      14.76010       0.00951       0.28571       0.43750       4.34750      26.27720       0.42210       3.20291  
    31.01730      14.53260       2.99263       2.42523       9.46822       1.78085       8.64623       0.04216       0.29851       2.09375       8.57122      26.26490       0.44494       3.44086  
    31.32990      16.15850       3.09605       2.04400      28.61800       3.73616       8.15577       0.12730       0.36364       6.18750      18.20590      24.14050       0.50252       3.00425  
    29.25850      16.18980       4.02483       1.71704     135.77000       9.66357       4.84779       0.29847       0.43238      16.40620      38.01600      21.71120       0.66634       2.28933  
173s316e                      -17.32870      31.56250     939.00000        32  
 tmp_max_ave   tmp_min_ave    tmp_max_sd    tmp_min_sd       pcp_ave        pcp_sd      pcp_skew       wet_dry       wet_wet      pcp_days       pcp_hhr       slr_ave       dew_ave       wnd_ave  
    29.84700      16.39920       4.09986       1.56568     123.68600       8.89126       5.64832       0.28851       0.44254      18.21880      37.56230      22.49180       0.71785       1.90709  
    29.43200      15.95060       4.30734       1.68290     107.45600       8.37200       5.82536       0.24648       0.43096      14.93750      41.75300      21.68060       0.74481       1.84051  
    29.26970      14.98730       3.59724       1.89562      50.46350       4.80460       8.96052       0.21232       0.37600      11.71880      30.91670      21.68600       0.72535       1.88730  
    28.44780      12.56690       3.04083       2.34539       9.26388       2.81375      19.86620       0.07451       0.24752       3.15625      24.10410      20.69480       0.65925       1.96529  
    26.55770       9.85382       3.27386       2.28965       3.51882       0.68115       9.72142       0.04741       0.22222       1.96875       3.42465      18.77680       0.61670       1.95793  
    24.04570       7.62101       2.88843       2.26997       0.82623       0.20359      10.28560       0.02460       0.08000       0.78125       1.20824      17.74190       0.61526       2.10194  
    23.71540       7.34707       2.91208       2.20290       1.00940       0.32556      14.93110       0.01749       0.15000       0.62500       2.34708      18.55540       0.59227       2.28970  
    26.36120       8.80868       3.11441       2.40435       0.48489       0.14221      11.27510       0.01228       0.20000       0.46875       0.84835      22.28200       0.51426       2.53641  
    30.11710      11.88390       3.10595       2.63467       1.69709       0.77792      18.19240       0.00738       0.33333       0.37500       6.05381      26.29790       0.42617       2.96809  
    31.71550      14.73500       2.95879       2.42834       5.80709       1.25303      10.56100       0.02960       0.28261       1.43750       7.83703      26.97500       0.44462       3.18953  
    32.38890      16.54290       3.11749       2.15589      19.49250       3.11507       9.77384       0.10294       0.28472       4.50000      19.47780      25.52240       0.48891       2.82257  
    30.52090      16.69030       4.04998       1.79638     101.22500       8.74909       5.94251       0.24771       0.40091      13.71880      41.31620      23.01190       0.64003       2.16607  
173s319e                      -17.32870      31.87500    1105.00000        32  
 tmp_max_ave   tmp_min_ave    tmp_max_sd    tmp_min_sd       pcp_ave        pcp_sd      pcp_skew       wet_dry       wet_wet      pcp_days       pcp_hhr       slr_ave       dew_ave       wnd_ave  
    30.29280      17.10150       4.03295       1.48284     127.62600       9.54855       6.62154       0.30266       0.43869      18.09380      44.50530      22.51860       0.70655       1.83877  
    29.53200      16.57500       4.23231       1.55234     111.40200       9.01136       6.74388       0.27089       0.44204      15.90620      47.24450      21.53060       0.73945       1.76989  
    29.40520      15.61380       3.60347       1.78463      50.53510       4.79380       8.90975       0.18790       0.39835      11.37500      31.51880      21.68290       0.71694       1.83195  
    28.95350      13.33980       3.08217       2.17220       7.59449       2.24978      20.70680       0.07275       0.24468       2.93750      20.23300      20.84960       0.64779       1.92198  
    26.98520      10.72630       3.29323       2.13099       2.76938       0.58555      10.07590       0.03606       0.25000       1.50000       3.22758      18.71330       0.60551       1.91439  
    24.35050       8.49091       2.94313       2.17603       1.19771       0.26695       8.82547       0.02473       0.20000       0.93750       1.37527      17.43070       0.60790       2.04175  
    23.98600       8.21049       2.93276       2.20071       1.40162       0.40095      13.98030       0.02596       0.13793       0.90625       2.69045      18.13020       0.58463       2.21841  
    26.59150       9.63347       3.20407       2.40788       0.64735       0.14846       8.36106       0.02064       0.13043       0.71875       0.68373      21.97360       0.50979       2.48801  
    30.30920      12.57650       3.17836       2.62715       1.82068       0.95496      20.41750       0.00738       0.27273       0.34375       7.88720      26.17440       0.42778       2.91665  
    31.92160      15.24610       3.01724       2.45748       4.81604       1.03229       9.36347       0.03826       0.23529       1.59375       5.34545      27.12380       0.44671       3.10993  
    32.79540      17.12440       3.21225       2.20938      18.74130       3.15173      10.13980       0.09466       0.30882       4.25000      17.73240      25.86930       0.48399       2.76303  
    30.98270      17.28160       4.04796       1.81180      91.29500       8.04143       6.74786       0.26007       0.39041      13.68750      41.73440      23.22740       0.62865       2.12249  
173s322e                      -17.32870      32.18750    1307.00000        32  
 tmp_max_ave   tmp_min_ave    tmp_max_sd    tmp_min_sd       pcp_ave        pcp_sd      pcp_skew       wet_dry       wet_wet      pcp_days       pcp_hhr       slr_ave       dew_ave       wnd_ave  
    30.01640      18.00100       3.84298       1.38955     156.51400      10.41330       6.60327       0.33604       0.44302      19.46880      55.43840      22.09900       0.70137       1.90294  
    28.89270      17.49180       3.64218       1.50137     139.34600      10.61430       6.94223       0.30373       0.45946      17.34380      55.49970      20.90560       0.73806       1.81631  
    28.80760      16.47770       3.03897       1.75156      66.07520       5.67084       6.57267       0.20748       0.40347      12.62500      26.55000      21.33890       0.71252       1.92758  
    28.39160      14.09130       2.80740       2.23770      10.11280       1.91960      18.38900       0.10266       0.25000       4.12500      17.16650      20.57000       0.64449       2.02908  
    26.89520      11.23980       3.26081       2.23554       3.14527       0.60691       8.83336       0.04060       0.27273       1.71875       3.20174      18.40690       0.60542       1.98481  
    24.35040       8.75029       2.94770       2.37552       1.79043       0.38728       9.13471       0.03254       0.18421       1.18750       1.93462      17.09010       0.61612       2.09163  
    23.99550       8.34975       2.95439       2.36322       1.74333       0.37938      10.99480       0.03043       0.20513       1.21875       2.35339      17.84740       0.59604       2.26992  
    26.57410       9.58666       3.25283       2.61099       0.96332       0.21640       9.39349       0.02073       0.22222       0.84375       1.24008      21.63480       0.52666       2.57813  
    30.29250      12.19660       3.25914       2.86302       1.77436       0.91647      23.39400       0.01271       0.18750       0.50000       8.74907      25.94190       0.44975       3.02661  
    31.87200      14.95070       3.10357       2.80392       5.08981       1.04708      10.02930       0.03735       0.25455       1.71875       6.24307      26.84330       0.46434       3.21855  
    32.71150      17.30850       3.28003       2.39356      25.61410       3.51703       8.40431       0.11592       0.33143       5.46875      20.36520      25.51460       0.49149       2.89146  
    30.80520      18.03300       3.92141       1.78315     107.69700       8.25187       5.85900       0.27505       0.40210      14.84380      36.06090      22.84940       0.62442       2.23119  
173s325e                      -17.32870      32.50000    1018.00000        32  
 tmp_max_ave   tmp_min_ave    tmp_max_sd    tmp_min_sd       pcp_ave        pcp_sd      pcp_skew       wet_dry       wet_wet      pcp_days       pcp_hhr       slr_ave       dew_ave       wnd_ave  
    30.04250      18.48860       3.68221       1.39866     182.36400      10.73700       5.29628       0.34316       0.43780      19.34380      51.48980      22.05110       0.70278       2.03888  
    28.94490      18.00650       3.50255       1.48569     164.54500      12.25420       6.76920       0.28286       0.45126      17.31250      67.82240      20.68010       0.74003       1.94441  
    28.88940      17.03150       2.92082       1.70855      76.19460       6.69480       6.86692       0.19832       0.39547      12.40620      27.10150      21.38550       0.71476       2.11266  